
---------- Begin Simulation Statistics ----------
sim_seconds                                  0.015267                       # Number of seconds simulated
sim_ticks                                 15267344125                       # Number of ticks simulated
final_tick                               3175607578000                       # Number of ticks from beginning of simulation (restored from checkpoints and never reset)
sim_freq                                 1000000000000                       # Frequency of simulated ticks
host_inst_rate                               87005119                       # Simulator instruction rate (inst/s)
host_op_rate                                161285282                       # Simulator op (including micro ops) rate (op/s)
host_tick_rate                              236847592                       # Simulator tick rate (ticks/s)
host_mem_usage                                2332528                       # Number of bytes of host memory used
host_seconds                                    64.46                       # Real time elapsed on the host
sim_insts                                  5608402928                       # Number of instructions simulated
sim_ops                                   10396548916                       # Number of ops (including micro ops) simulated
system.voltage_domain.voltage                       1                       # Voltage in Volts
system.clk_domain.clock                          1000                       # Clock period in ticks
system.mem_ctrls.pwrStateResidencyTicks::UNDEFINED  15267344125                       # Cumulative time (in ticks) in various power states
system.mem_ctrls.bytes_read::cpu0.inst             64                       # Number of bytes read from this memory
system.mem_ctrls.bytes_read::cpu0.data       10214656                       # Number of bytes read from this memory
system.mem_ctrls.bytes_read::total           10214720                       # Number of bytes read from this memory
system.mem_ctrls.bytes_inst_read::cpu0.inst           64                       # Number of instructions bytes read from this memory
system.mem_ctrls.bytes_inst_read::total            64                       # Number of instructions bytes read from this memory
system.mem_ctrls.bytes_written::writebacks        59840                       # Number of bytes written to this memory
system.mem_ctrls.bytes_written::total           59840                       # Number of bytes written to this memory
system.mem_ctrls.num_reads::cpu0.inst               1                       # Number of read requests responded to by this memory
system.mem_ctrls.num_reads::cpu0.data          159604                       # Number of read requests responded to by this memory
system.mem_ctrls.num_reads::total              159605                       # Number of read requests responded to by this memory
system.mem_ctrls.num_writes::writebacks           935                       # Number of write requests responded to by this memory
system.mem_ctrls.num_writes::total                935                       # Number of write requests responded to by this memory
system.mem_ctrls.bw_read::cpu0.inst              4192                       # Total read bandwidth from this memory (bytes/s)
system.mem_ctrls.bw_read::cpu0.data         669052582                       # Total read bandwidth from this memory (bytes/s)
system.mem_ctrls.bw_read::total             669056773                       # Total read bandwidth from this memory (bytes/s)
system.mem_ctrls.bw_inst_read::cpu0.inst         4192                       # Instruction read bandwidth from this memory (bytes/s)
system.mem_ctrls.bw_inst_read::total             4192                       # Instruction read bandwidth from this memory (bytes/s)
system.mem_ctrls.bw_write::writebacks         3919477                       # Write bandwidth from this memory (bytes/s)
system.mem_ctrls.bw_write::total              3919477                       # Write bandwidth from this memory (bytes/s)
system.mem_ctrls.bw_total::writebacks         3919477                       # Total bandwidth to/from this memory (bytes/s)
system.mem_ctrls.bw_total::cpu0.inst             4192                       # Total bandwidth to/from this memory (bytes/s)
system.mem_ctrls.bw_total::cpu0.data        669052582                       # Total bandwidth to/from this memory (bytes/s)
system.mem_ctrls.bw_total::total            672976250                       # Total bandwidth to/from this memory (bytes/s)
system.mem_ctrls.readReqs                      159605                       # Number of read requests accepted
system.mem_ctrls.writeReqs                        935                       # Number of write requests accepted
system.mem_ctrls.readBursts                    159605                       # Number of DRAM read bursts, including those serviced by the write queue
system.mem_ctrls.writeBursts                      935                       # Number of DRAM write bursts, including those merged in the write queue
system.mem_ctrls.bytesReadDRAM               10208000                       # Total number of bytes read from DRAM
system.mem_ctrls.bytesReadWrQ                    6720                       # Total number of bytes read from write queue
system.mem_ctrls.bytesWritten                   60352                       # Total number of bytes written to DRAM
system.mem_ctrls.bytesReadSys                10214720                       # Total read bytes from the system interface side
system.mem_ctrls.bytesWrittenSys                59840                       # Total written bytes from the system interface side
system.mem_ctrls.servicedByWrQ                    105                       # Number of DRAM read bursts serviced by the write queue
system.mem_ctrls.mergedWrBursts                     0                       # Number of DRAM write bursts merged with an existing one
system.mem_ctrls.neitherReadNorWriteReqs            0                       # Number of requests that are neither read nor write
system.mem_ctrls.perBankRdBursts::0              9811                       # Per bank write bursts
system.mem_ctrls.perBankRdBursts::1              9996                       # Per bank write bursts
system.mem_ctrls.perBankRdBursts::2              9674                       # Per bank write bursts
system.mem_ctrls.perBankRdBursts::3             10935                       # Per bank write bursts
system.mem_ctrls.perBankRdBursts::4             11333                       # Per bank write bursts
system.mem_ctrls.perBankRdBursts::5             10567                       # Per bank write bursts
system.mem_ctrls.perBankRdBursts::6             10345                       # Per bank write bursts
system.mem_ctrls.perBankRdBursts::7              9676                       # Per bank write bursts
system.mem_ctrls.perBankRdBursts::8              9508                       # Per bank write bursts
system.mem_ctrls.perBankRdBursts::9              9595                       # Per bank write bursts
system.mem_ctrls.perBankRdBursts::10             9304                       # Per bank write bursts
system.mem_ctrls.perBankRdBursts::11             9590                       # Per bank write bursts
system.mem_ctrls.perBankRdBursts::12             9816                       # Per bank write bursts
system.mem_ctrls.perBankRdBursts::13             9897                       # Per bank write bursts
system.mem_ctrls.perBankRdBursts::14             9769                       # Per bank write bursts
system.mem_ctrls.perBankRdBursts::15             9684                       # Per bank write bursts
system.mem_ctrls.perBankWrBursts::0                60                       # Per bank write bursts
system.mem_ctrls.perBankWrBursts::1               109                       # Per bank write bursts
system.mem_ctrls.perBankWrBursts::2               128                       # Per bank write bursts
system.mem_ctrls.perBankWrBursts::3               226                       # Per bank write bursts
system.mem_ctrls.perBankWrBursts::4               134                       # Per bank write bursts
system.mem_ctrls.perBankWrBursts::5               105                       # Per bank write bursts
system.mem_ctrls.perBankWrBursts::6                43                       # Per bank write bursts
system.mem_ctrls.perBankWrBursts::7                64                       # Per bank write bursts
system.mem_ctrls.perBankWrBursts::8                 1                       # Per bank write bursts
system.mem_ctrls.perBankWrBursts::9                 0                       # Per bank write bursts
system.mem_ctrls.perBankWrBursts::10                0                       # Per bank write bursts
system.mem_ctrls.perBankWrBursts::11                0                       # Per bank write bursts
system.mem_ctrls.perBankWrBursts::12               33                       # Per bank write bursts
system.mem_ctrls.perBankWrBursts::13                1                       # Per bank write bursts
system.mem_ctrls.perBankWrBursts::14                8                       # Per bank write bursts
system.mem_ctrls.perBankWrBursts::15               31                       # Per bank write bursts
system.mem_ctrls.numRdRetry                         0                       # Number of times read queue was full causing retry
system.mem_ctrls.numWrRetry                         0                       # Number of times write queue was full causing retry
system.mem_ctrls.totGap                   15268060000                       # Total gap between requests
system.mem_ctrls.readPktSize::0                     0                       # Read request sizes (log2)
system.mem_ctrls.readPktSize::1                     0                       # Read request sizes (log2)
system.mem_ctrls.readPktSize::2                     0                       # Read request sizes (log2)
system.mem_ctrls.readPktSize::3                     0                       # Read request sizes (log2)
system.mem_ctrls.readPktSize::4                     0                       # Read request sizes (log2)
system.mem_ctrls.readPktSize::5                     0                       # Read request sizes (log2)
system.mem_ctrls.readPktSize::6                159605                       # Read request sizes (log2)
system.mem_ctrls.writePktSize::0                    0                       # Write request sizes (log2)
system.mem_ctrls.writePktSize::1                    0                       # Write request sizes (log2)
system.mem_ctrls.writePktSize::2                    0                       # Write request sizes (log2)
system.mem_ctrls.writePktSize::3                    0                       # Write request sizes (log2)
system.mem_ctrls.writePktSize::4                    0                       # Write request sizes (log2)
system.mem_ctrls.writePktSize::5                    0                       # Write request sizes (log2)
system.mem_ctrls.writePktSize::6                  935                       # Write request sizes (log2)
system.mem_ctrls.rdQLenPdf::0                  124435                       # What read queue length does an incoming req see
system.mem_ctrls.rdQLenPdf::1                   32706                       # What read queue length does an incoming req see
system.mem_ctrls.rdQLenPdf::2                    2282                       # What read queue length does an incoming req see
system.mem_ctrls.rdQLenPdf::3                      76                       # What read queue length does an incoming req see
system.mem_ctrls.rdQLenPdf::4                       1                       # What read queue length does an incoming req see
system.mem_ctrls.rdQLenPdf::5                       0                       # What read queue length does an incoming req see
system.mem_ctrls.rdQLenPdf::6                       0                       # What read queue length does an incoming req see
system.mem_ctrls.rdQLenPdf::7                       0                       # What read queue length does an incoming req see
system.mem_ctrls.rdQLenPdf::8                       0                       # What read queue length does an incoming req see
system.mem_ctrls.rdQLenPdf::9                       0                       # What read queue length does an incoming req see
system.mem_ctrls.rdQLenPdf::10                      0                       # What read queue length does an incoming req see
system.mem_ctrls.rdQLenPdf::11                      0                       # What read queue length does an incoming req see
system.mem_ctrls.rdQLenPdf::12                      0                       # What read queue length does an incoming req see
system.mem_ctrls.rdQLenPdf::13                      0                       # What read queue length does an incoming req see
system.mem_ctrls.rdQLenPdf::14                      0                       # What read queue length does an incoming req see
system.mem_ctrls.rdQLenPdf::15                      0                       # What read queue length does an incoming req see
system.mem_ctrls.rdQLenPdf::16                      0                       # What read queue length does an incoming req see
system.mem_ctrls.rdQLenPdf::17                      0                       # What read queue length does an incoming req see
system.mem_ctrls.rdQLenPdf::18                      0                       # What read queue length does an incoming req see
system.mem_ctrls.rdQLenPdf::19                      0                       # What read queue length does an incoming req see
system.mem_ctrls.rdQLenPdf::20                      0                       # What read queue length does an incoming req see
system.mem_ctrls.rdQLenPdf::21                      0                       # What read queue length does an incoming req see
system.mem_ctrls.rdQLenPdf::22                      0                       # What read queue length does an incoming req see
system.mem_ctrls.rdQLenPdf::23                      0                       # What read queue length does an incoming req see
system.mem_ctrls.rdQLenPdf::24                      0                       # What read queue length does an incoming req see
system.mem_ctrls.rdQLenPdf::25                      0                       # What read queue length does an incoming req see
system.mem_ctrls.rdQLenPdf::26                      0                       # What read queue length does an incoming req see
system.mem_ctrls.rdQLenPdf::27                      0                       # What read queue length does an incoming req see
system.mem_ctrls.rdQLenPdf::28                      0                       # What read queue length does an incoming req see
system.mem_ctrls.rdQLenPdf::29                      0                       # What read queue length does an incoming req see
system.mem_ctrls.rdQLenPdf::30                      0                       # What read queue length does an incoming req see
system.mem_ctrls.rdQLenPdf::31                      0                       # What read queue length does an incoming req see
system.mem_ctrls.wrQLenPdf::0                       0                       # What write queue length does an incoming req see
system.mem_ctrls.wrQLenPdf::1                       0                       # What write queue length does an incoming req see
system.mem_ctrls.wrQLenPdf::2                       0                       # What write queue length does an incoming req see
system.mem_ctrls.wrQLenPdf::3                       0                       # What write queue length does an incoming req see
system.mem_ctrls.wrQLenPdf::4                       0                       # What write queue length does an incoming req see
system.mem_ctrls.wrQLenPdf::5                       0                       # What write queue length does an incoming req see
system.mem_ctrls.wrQLenPdf::6                       0                       # What write queue length does an incoming req see
system.mem_ctrls.wrQLenPdf::7                       0                       # What write queue length does an incoming req see
system.mem_ctrls.wrQLenPdf::8                       0                       # What write queue length does an incoming req see
system.mem_ctrls.wrQLenPdf::9                       0                       # What write queue length does an incoming req see
system.mem_ctrls.wrQLenPdf::10                      0                       # What write queue length does an incoming req see
system.mem_ctrls.wrQLenPdf::11                      0                       # What write queue length does an incoming req see
system.mem_ctrls.wrQLenPdf::12                      0                       # What write queue length does an incoming req see
system.mem_ctrls.wrQLenPdf::13                      0                       # What write queue length does an incoming req see
system.mem_ctrls.wrQLenPdf::14                      0                       # What write queue length does an incoming req see
system.mem_ctrls.wrQLenPdf::15                      7                       # What write queue length does an incoming req see
system.mem_ctrls.wrQLenPdf::16                      7                       # What write queue length does an incoming req see
system.mem_ctrls.wrQLenPdf::17                     59                       # What write queue length does an incoming req see
system.mem_ctrls.wrQLenPdf::18                     58                       # What write queue length does an incoming req see
system.mem_ctrls.wrQLenPdf::19                     58                       # What write queue length does an incoming req see
system.mem_ctrls.wrQLenPdf::20                     58                       # What write queue length does an incoming req see
system.mem_ctrls.wrQLenPdf::21                     58                       # What write queue length does an incoming req see
system.mem_ctrls.wrQLenPdf::22                     58                       # What write queue length does an incoming req see
system.mem_ctrls.wrQLenPdf::23                     58                       # What write queue length does an incoming req see
system.mem_ctrls.wrQLenPdf::24                     57                       # What write queue length does an incoming req see
system.mem_ctrls.wrQLenPdf::25                     57                       # What write queue length does an incoming req see
system.mem_ctrls.wrQLenPdf::26                     57                       # What write queue length does an incoming req see
system.mem_ctrls.wrQLenPdf::27                     57                       # What write queue length does an incoming req see
system.mem_ctrls.wrQLenPdf::28                     57                       # What write queue length does an incoming req see
system.mem_ctrls.wrQLenPdf::29                     57                       # What write queue length does an incoming req see
system.mem_ctrls.wrQLenPdf::30                     57                       # What write queue length does an incoming req see
system.mem_ctrls.wrQLenPdf::31                     57                       # What write queue length does an incoming req see
system.mem_ctrls.wrQLenPdf::32                     58                       # What write queue length does an incoming req see
system.mem_ctrls.wrQLenPdf::33                      0                       # What write queue length does an incoming req see
system.mem_ctrls.wrQLenPdf::34                      0                       # What write queue length does an incoming req see
system.mem_ctrls.wrQLenPdf::35                      0                       # What write queue length does an incoming req see
system.mem_ctrls.wrQLenPdf::36                      0                       # What write queue length does an incoming req see
system.mem_ctrls.wrQLenPdf::37                      0                       # What write queue length does an incoming req see
system.mem_ctrls.wrQLenPdf::38                      0                       # What write queue length does an incoming req see
system.mem_ctrls.wrQLenPdf::39                      0                       # What write queue length does an incoming req see
system.mem_ctrls.wrQLenPdf::40                      0                       # What write queue length does an incoming req see
system.mem_ctrls.wrQLenPdf::41                      0                       # What write queue length does an incoming req see
system.mem_ctrls.wrQLenPdf::42                      0                       # What write queue length does an incoming req see
system.mem_ctrls.wrQLenPdf::43                      0                       # What write queue length does an incoming req see
system.mem_ctrls.wrQLenPdf::44                      0                       # What write queue length does an incoming req see
system.mem_ctrls.wrQLenPdf::45                      0                       # What write queue length does an incoming req see
system.mem_ctrls.wrQLenPdf::46                      0                       # What write queue length does an incoming req see
system.mem_ctrls.wrQLenPdf::47                      0                       # What write queue length does an incoming req see
system.mem_ctrls.wrQLenPdf::48                      0                       # What write queue length does an incoming req see
system.mem_ctrls.wrQLenPdf::49                      0                       # What write queue length does an incoming req see
system.mem_ctrls.wrQLenPdf::50                      0                       # What write queue length does an incoming req see
system.mem_ctrls.wrQLenPdf::51                      0                       # What write queue length does an incoming req see
system.mem_ctrls.wrQLenPdf::52                      0                       # What write queue length does an incoming req see
system.mem_ctrls.wrQLenPdf::53                      0                       # What write queue length does an incoming req see
system.mem_ctrls.wrQLenPdf::54                      0                       # What write queue length does an incoming req see
system.mem_ctrls.wrQLenPdf::55                      0                       # What write queue length does an incoming req see
system.mem_ctrls.wrQLenPdf::56                      0                       # What write queue length does an incoming req see
system.mem_ctrls.wrQLenPdf::57                      0                       # What write queue length does an incoming req see
system.mem_ctrls.wrQLenPdf::58                      0                       # What write queue length does an incoming req see
system.mem_ctrls.wrQLenPdf::59                      0                       # What write queue length does an incoming req see
system.mem_ctrls.wrQLenPdf::60                      0                       # What write queue length does an incoming req see
system.mem_ctrls.wrQLenPdf::61                      0                       # What write queue length does an incoming req see
system.mem_ctrls.wrQLenPdf::62                      0                       # What write queue length does an incoming req see
system.mem_ctrls.wrQLenPdf::63                      0                       # What write queue length does an incoming req see
system.mem_ctrls.bytesPerActivate::samples        91710                       # Bytes accessed per row activation
system.mem_ctrls.bytesPerActivate::mean    111.953593                       # Bytes accessed per row activation
system.mem_ctrls.bytesPerActivate::gmean    97.331808                       # Bytes accessed per row activation
system.mem_ctrls.bytesPerActivate::stdev    67.829003                       # Bytes accessed per row activation
system.mem_ctrls.bytesPerActivate::0-127        49813     54.32%     54.32% # Bytes accessed per row activation
system.mem_ctrls.bytesPerActivate::128-255        35516     38.73%     93.04% # Bytes accessed per row activation
system.mem_ctrls.bytesPerActivate::256-383         5647      6.16%     99.20% # Bytes accessed per row activation
system.mem_ctrls.bytesPerActivate::384-511          619      0.67%     99.87% # Bytes accessed per row activation
system.mem_ctrls.bytesPerActivate::512-639           80      0.09%     99.96% # Bytes accessed per row activation
system.mem_ctrls.bytesPerActivate::640-767           12      0.01%     99.97% # Bytes accessed per row activation
system.mem_ctrls.bytesPerActivate::768-895            9      0.01%     99.98% # Bytes accessed per row activation
system.mem_ctrls.bytesPerActivate::896-1023            6      0.01%     99.99% # Bytes accessed per row activation
system.mem_ctrls.bytesPerActivate::1024-1151            8      0.01%    100.00% # Bytes accessed per row activation
system.mem_ctrls.bytesPerActivate::total        91710                       # Bytes accessed per row activation
system.mem_ctrls.rdPerTurnAround::samples           58                       # Reads before turning the bus around for writes
system.mem_ctrls.rdPerTurnAround::mean    2754.034483                       # Reads before turning the bus around for writes
system.mem_ctrls.rdPerTurnAround::gmean   2670.435873                       # Reads before turning the bus around for writes
system.mem_ctrls.rdPerTurnAround::stdev    691.082445                       # Reads before turning the bus around for writes
system.mem_ctrls.rdPerTurnAround::1280-1535            2      3.45%      3.45% # Reads before turning the bus around for writes
system.mem_ctrls.rdPerTurnAround::1536-1791            1      1.72%      5.17% # Reads before turning the bus around for writes
system.mem_ctrls.rdPerTurnAround::1792-2047            5      8.62%     13.79% # Reads before turning the bus around for writes
system.mem_ctrls.rdPerTurnAround::2048-2303            8     13.79%     27.59% # Reads before turning the bus around for writes
system.mem_ctrls.rdPerTurnAround::2304-2559            8     13.79%     41.38% # Reads before turning the bus around for writes
system.mem_ctrls.rdPerTurnAround::2560-2815           12     20.69%     62.07% # Reads before turning the bus around for writes
system.mem_ctrls.rdPerTurnAround::2816-3071            4      6.90%     68.97% # Reads before turning the bus around for writes
system.mem_ctrls.rdPerTurnAround::3072-3327            8     13.79%     82.76% # Reads before turning the bus around for writes
system.mem_ctrls.rdPerTurnAround::3328-3583            4      6.90%     89.66% # Reads before turning the bus around for writes
system.mem_ctrls.rdPerTurnAround::3584-3839            2      3.45%     93.10% # Reads before turning the bus around for writes
system.mem_ctrls.rdPerTurnAround::3840-4095            2      3.45%     96.55% # Reads before turning the bus around for writes
system.mem_ctrls.rdPerTurnAround::4352-4607            1      1.72%     98.28% # Reads before turning the bus around for writes
system.mem_ctrls.rdPerTurnAround::4608-4863            1      1.72%    100.00% # Reads before turning the bus around for writes
system.mem_ctrls.rdPerTurnAround::total            58                       # Reads before turning the bus around for writes
system.mem_ctrls.wrPerTurnAround::samples           58                       # Writes before turning the bus around for reads
system.mem_ctrls.wrPerTurnAround::mean      16.258621                       # Writes before turning the bus around for reads
system.mem_ctrls.wrPerTurnAround::gmean     16.244203                       # Writes before turning the bus around for reads
system.mem_ctrls.wrPerTurnAround::stdev      0.714765                       # Writes before turning the bus around for reads
system.mem_ctrls.wrPerTurnAround::16               51     87.93%     87.93% # Writes before turning the bus around for reads
system.mem_ctrls.wrPerTurnAround::18                6     10.34%     98.28% # Writes before turning the bus around for reads
system.mem_ctrls.wrPerTurnAround::19                1      1.72%    100.00% # Writes before turning the bus around for reads
system.mem_ctrls.wrPerTurnAround::total            58                       # Writes before turning the bus around for reads
system.mem_ctrls.totQLat                   4071614250                       # Total ticks spent queuing
system.mem_ctrls.totMemAccLat              7062239250                       # Total ticks spent from burst creation until serviced by the DRAM
system.mem_ctrls.totBusLat                  797500000                       # Total ticks spent in databus transfers
system.mem_ctrls.avgQLat                     25527.36                       # Average queueing delay per DRAM burst
system.mem_ctrls.avgBusLat                    5000.00                       # Average bus latency per DRAM burst
system.mem_ctrls.avgMemAccLat                44277.36                       # Average memory access latency per DRAM burst
system.mem_ctrls.avgRdBW                       668.62                       # Average DRAM read bandwidth in MiByte/s
system.mem_ctrls.avgWrBW                         3.95                       # Average achieved write bandwidth in MiByte/s
system.mem_ctrls.avgRdBWSys                    669.06                       # Average system read bandwidth in MiByte/s
system.mem_ctrls.avgWrBWSys                      3.92                       # Average system write bandwidth in MiByte/s
system.mem_ctrls.peakBW                      12800.00                       # Theoretical peak bandwidth in MiByte/s
system.mem_ctrls.busUtil                         5.25                       # Data bus utilization in percentage
system.mem_ctrls.busUtilRead                     5.22                       # Data bus utilization in percentage for reads
system.mem_ctrls.busUtilWrite                    0.03                       # Data bus utilization in percentage for writes
system.mem_ctrls.avgRdQLen                       1.25                       # Average read queue length when enqueuing
system.mem_ctrls.avgWrQLen                      25.14                       # Average write queue length when enqueuing
system.mem_ctrls.readRowHits                    67975                       # Number of row buffer hits during reads
system.mem_ctrls.writeRowHits                     749                       # Number of row buffer hits during writes
system.mem_ctrls.readRowHitRate                 42.62                       # Row buffer hit rate for reads
system.mem_ctrls.writeRowHitRate                80.11                       # Row buffer hit rate for writes
system.mem_ctrls.avgGap                      95104.40                       # Average gap between requests
system.mem_ctrls.pageHitRate                    42.84                       # Row buffer hit rate, read and write combined
system.mem_ctrls_0.actEnergy                337757700                       # Energy for activate commands per rank (pJ)
system.mem_ctrls_0.preEnergy                179503500                       # Energy for precharge commands per rank (pJ)
system.mem_ctrls_0.readEnergy               587886180                       # Energy for read commands per rank (pJ)
system.mem_ctrls_0.writeEnergy                4536180                       # Energy for write commands per rank (pJ)
system.mem_ctrls_0.refreshEnergy         1205923680.000000                       # Energy for refresh commands per rank (pJ)
system.mem_ctrls_0.actBackEnergy           1491754410                       # Energy for active background per rank (pJ)
system.mem_ctrls_0.preBackEnergy             24919200                       # Energy for precharge background per rank (pJ)
system.mem_ctrls_0.actPowerDownEnergy      5212387230                       # Energy for active power-down per rank (pJ)
system.mem_ctrls_0.prePowerDownEnergy       191989440                       # Energy for precharge power-down per rank (pJ)
system.mem_ctrls_0.selfRefreshEnergy     651240.000000                       # Energy for self refresh per rank (pJ)
system.mem_ctrls_0.totalEnergy             9237308760                       # Total energy per rank (pJ)
system.mem_ctrls_0.averagePower            605.037044                       # Core power per rank (mW)
system.mem_ctrls_0.totalIdleTime          11931535625                       # Total Idle time Per DRAM Rank
system.mem_ctrls_0.memoryStateTime::IDLE     10326000                       # Time in different power states
system.mem_ctrls_0.memoryStateTime::REF     510126000                       # Time in different power states
system.mem_ctrls_0.memoryStateTime::SREF       413000                       # Time in different power states
system.mem_ctrls_0.memoryStateTime::PRE_PDN    500185250                       # Time in different power states
system.mem_ctrls_0.memoryStateTime::ACT    2815348750                       # Time in different power states
system.mem_ctrls_0.memoryStateTime::ACT_PDN  11430945125                       # Time in different power states
system.mem_ctrls_1.actEnergy                317115960                       # Energy for activate commands per rank (pJ)
system.mem_ctrls_1.preEnergy                168535950                       # Energy for precharge commands per rank (pJ)
system.mem_ctrls_1.readEnergy               550943820                       # Energy for read commands per rank (pJ)
system.mem_ctrls_1.writeEnergy                 386280                       # Energy for write commands per rank (pJ)
system.mem_ctrls_1.refreshEnergy         1208382240.000000                       # Energy for refresh commands per rank (pJ)
system.mem_ctrls_1.actBackEnergy           1405313910                       # Energy for active background per rank (pJ)
system.mem_ctrls_1.preBackEnergy             25419360                       # Energy for precharge background per rank (pJ)
system.mem_ctrls_1.actPowerDownEnergy      5248929930                       # Energy for active power-down per rank (pJ)
system.mem_ctrls_1.prePowerDownEnergy       232381920                       # Energy for precharge power-down per rank (pJ)
system.mem_ctrls_1.selfRefreshEnergy     4116540.000000                       # Energy for self refresh per rank (pJ)
system.mem_ctrls_1.totalEnergy             9161637780                       # Total energy per rank (pJ)
system.mem_ctrls_1.averagePower            600.080650                       # Core power per rank (mW)
system.mem_ctrls_1.totalIdleTime          12119501375                       # Total Idle time Per DRAM Rank
system.mem_ctrls_1.memoryStateTime::IDLE     11550000                       # Time in different power states
system.mem_ctrls_1.memoryStateTime::REF     511196000                       # Time in different power states
system.mem_ctrls_1.memoryStateTime::SREF      3100250                       # Time in different power states
system.mem_ctrls_1.memoryStateTime::PRE_PDN    605243250                       # Time in different power states
system.mem_ctrls_1.memoryStateTime::ACT    2624972500                       # Time in different power states
system.mem_ctrls_1.memoryStateTime::ACT_PDN  11511282125                       # Time in different power states
system.pwrStateResidencyTicks::UNDEFINED  15267344125                       # Cumulative time (in ticks) in various power states
system.cpu0.branchPred.lookups                2468040                       # Number of BP lookups
system.cpu0.branchPred.condPredicted          2468040                       # Number of conditional branches predicted
system.cpu0.branchPred.condIncorrect           110025                       # Number of conditional branches incorrect
system.cpu0.branchPred.BTBLookups             1847275                       # Number of BTB lookups
system.cpu0.branchPred.BTBHits                      0                       # Number of BTB hits
system.cpu0.branchPred.BTBCorrect                   0                       # Number of correct BTB predictions (this stat may not work properly.
system.cpu0.branchPred.BTBHitPct             0.000000                       # BTB Hit Percentage
system.cpu0.branchPred.usedRAS                  84262                       # Number of times the RAS was used to get a target.
system.cpu0.branchPred.RASInCorrect             11567                       # Number of incorrect RAS predictions.
system.cpu0.branchPred.indirectLookups        1847275                       # Number of indirect predictor lookups.
system.cpu0.branchPred.indirectHits           1034808                       # Number of indirect target hits.
system.cpu0.branchPred.indirectMisses          812467                       # Number of indirect misses.
system.cpu0.branchPredindirectMispredicted        39028                       # Number of mispredicted indirect branches.
system.cpu_voltage_domain.voltage                   1                       # Voltage in Volts
system.cpu_clk_domain.clock                       500                       # Clock period in ticks
system.cpu0.dtb.walker.pwrStateResidencyTicks::UNDEFINED  15267344125                       # Cumulative time (in ticks) in various power states
system.cpu0.dtb.rdAccesses                    1233102                       # TLB accesses on read requests
system.cpu0.dtb.wrAccesses                     111896                       # TLB accesses on write requests
system.cpu0.dtb.rdMisses                       252941                       # TLB misses on read requests
system.cpu0.dtb.wrMisses                         1861                       # TLB misses on write requests
system.cpu0.apic_clk_domain.clock                8000                       # Clock period in ticks
system.cpu0.interrupts.pwrStateResidencyTicks::UNDEFINED  15267344125                       # Cumulative time (in ticks) in various power states
system.cpu0.itb.walker.pwrStateResidencyTicks::UNDEFINED  15267344125                       # Cumulative time (in ticks) in various power states
system.cpu0.itb.rdAccesses                          0                       # TLB accesses on read requests
system.cpu0.itb.wrAccesses                    2046476                       # TLB accesses on write requests
system.cpu0.itb.rdMisses                            0                       # TLB misses on read requests
system.cpu0.itb.wrMisses                         6169                       # TLB misses on write requests
system.cpu0.workload.numSyscalls                    1                       # Number of system calls
system.cpu0.pwrStateResidencyTicks::ON    15267344125                       # Cumulative time (in ticks) in various power states
system.cpu0.numCycles                        30534689                       # number of cpu cycles simulated
system.cpu0.numWorkItemsStarted                     0                       # number of work items this cpu started
system.cpu0.numWorkItemsCompleted                   0                       # number of work items this cpu completed
system.cpu0.fetch.icacheStallCycles           2098487                       # Number of cycles fetch is stalled on an Icache miss
system.cpu0.fetch.Insts                       7352970                       # Number of instructions fetch has processed
system.cpu0.fetch.Branches                    2468040                       # Number of branches that fetch encountered
system.cpu0.fetch.predictedBranches           1119070                       # Number of branches that fetch has predicted taken
system.cpu0.fetch.Cycles                     28245893                       # Number of cycles fetch has run and was not squashing or blocked
system.cpu0.fetch.SquashCycles                 223916                       # Number of cycles fetch has spent squashing
system.cpu0.fetch.TlbCycles                      1633                       # Number of cycles fetch has spent waiting for tlb
system.cpu0.fetch.MiscStallCycles                1329                       # Number of cycles fetch has spent waiting on interrupts, or bad addresses, or out of MSHRs
system.cpu0.fetch.PendingTrapStallCycles        49192                       # Number of stall cycles due to pending traps
system.cpu0.fetch.CacheLines                  2040307                       # Number of cache lines fetched
system.cpu0.fetch.IcacheSquashes                16899                       # Number of outstanding Icache misses that were squashed
system.cpu0.fetch.ItlbSquashes                      9                       # Number of outstanding ITLB misses that were squashed
system.cpu0.fetch.rateDist::samples          30508492                       # Number of instructions fetched each cycle (Total)
system.cpu0.fetch.rateDist::mean             0.485381                       # Number of instructions fetched each cycle (Total)
system.cpu0.fetch.rateDist::stdev            1.734972                       # Number of instructions fetched each cycle (Total)
system.cpu0.fetch.rateDist::underflows              0      0.00%      0.00% # Number of instructions fetched each cycle (Total)
system.cpu0.fetch.rateDist::0                27683689     90.74%     90.74% # Number of instructions fetched each cycle (Total)
system.cpu0.fetch.rateDist::1                   32544      0.11%     90.85% # Number of instructions fetched each cycle (Total)
system.cpu0.fetch.rateDist::2                  980022      3.21%     94.06% # Number of instructions fetched each cycle (Total)
system.cpu0.fetch.rateDist::3                   50856      0.17%     94.23% # Number of instructions fetched each cycle (Total)
system.cpu0.fetch.rateDist::4                  200199      0.66%     94.88% # Number of instructions fetched each cycle (Total)
system.cpu0.fetch.rateDist::5                  104558      0.34%     95.23% # Number of instructions fetched each cycle (Total)
system.cpu0.fetch.rateDist::6                  136627      0.45%     95.67% # Number of instructions fetched each cycle (Total)
system.cpu0.fetch.rateDist::7                   40251      0.13%     95.81% # Number of instructions fetched each cycle (Total)
system.cpu0.fetch.rateDist::8                 1279746      4.19%    100.00% # Number of instructions fetched each cycle (Total)
system.cpu0.fetch.rateDist::overflows               0      0.00%    100.00% # Number of instructions fetched each cycle (Total)
system.cpu0.fetch.rateDist::min_value               0                       # Number of instructions fetched each cycle (Total)
system.cpu0.fetch.rateDist::max_value               8                       # Number of instructions fetched each cycle (Total)
system.cpu0.fetch.rateDist::total            30508492                       # Number of instructions fetched each cycle (Total)
system.cpu0.fetch.branchRate                 0.080827                       # Number of branch fetches per cycle
system.cpu0.fetch.rate                       0.240807                       # Number of inst fetches per cycle
system.cpu0.decode.IdleCycles                 1075033                       # Number of cycles decode is idle
system.cpu0.decode.BlockedCycles             27415670                       # Number of cycles decode is blocked
system.cpu0.decode.RunCycles                  1428775                       # Number of cycles decode is running
system.cpu0.decode.UnblockCycles               477056                       # Number of cycles decode is unblocking
system.cpu0.decode.SquashCycles                111958                       # Number of cycles decode is squashing
system.cpu0.decode.DecodedInsts              12455704                       # Number of instructions handled by decode
system.cpu0.rename.SquashCycles                111958                       # Number of cycles rename is squashing
system.cpu0.rename.IdleCycles                 1239534                       # Number of cycles rename is idle
system.cpu0.rename.BlockCycles               25667270                       # Number of cycles rename is blocking
system.cpu0.rename.serializeStallCycles         19038                       # count of cycles rename stalled for serializing inst
system.cpu0.rename.RunCycles                  1638151                       # Number of cycles rename is running
system.cpu0.rename.UnblockCycles              1832541                       # Number of cycles rename is unblocking
system.cpu0.rename.RenamedInsts              11941377                       # Number of instructions processed by rename
system.cpu0.rename.ROBFullEvents                78045                       # Number of times rename has blocked due to ROB full
system.cpu0.rename.IQFullEvents               1511476                       # Number of times rename has blocked due to IQ full
system.cpu0.rename.LQFullEvents                241242                       # Number of times rename has blocked due to LQ full
system.cpu0.rename.SQFullEvents                  1621                       # Number of times rename has blocked due to SQ full
system.cpu0.rename.RenamedOperands           14227437                       # Number of destination operands rename has renamed
system.cpu0.rename.RenameLookups             33049780                       # Number of register rename lookups that rename has made
system.cpu0.rename.int_rename_lookups        15878427                       # Number of integer rename lookups
system.cpu0.rename.fp_rename_lookups            84396                       # Number of floating rename lookups
system.cpu0.rename.CommittedMaps              5430959                       # Number of HB maps that are committed
system.cpu0.rename.UndoneMaps                 8796480                       # Number of HB maps that are undone due to squashing
system.cpu0.rename.serializingInsts               387                       # count of serializing insts renamed
system.cpu0.rename.tempSerializingInsts           479                       # count of temporary serializing insts renamed
system.cpu0.rename.skidInsts                  2948495                       # count of insts added to the skid buffer
system.cpu0.memDep0.insertedLoads             2081883                       # Number of loads inserted to the mem dependence unit.
system.cpu0.memDep0.insertedStores             159319                       # Number of stores inserted to the mem dependence unit.
system.cpu0.memDep0.conflictingLoads             6525                       # Number of conflicting loads.
system.cpu0.memDep0.conflictingStores            8395                       # Number of conflicting stores.
system.cpu0.iq.iqInstsAdded                  11264319                       # Number of instructions added to the IQ (excludes non-spec)
system.cpu0.iq.iqNonSpecInstsAdded               8654                       # Number of non-speculative instructions added to the IQ
system.cpu0.iq.iqInstsIssued                  8264109                       # Number of instructions issued
system.cpu0.iq.iqSquashedInstsIssued            12453                       # Number of squashed instructions issued
system.cpu0.iq.iqSquashedInstsExamined        6749250                       # Number of squashed instructions iterated over during squash; mainly for profiling
system.cpu0.iq.iqSquashedOperandsExamined     13812170                       # Number of squashed operands that are examined and possibly removed from graph
system.cpu0.iq.iqSquashedNonSpecRemoved          8653                       # Number of squashed non-spec instructions that were removed
system.cpu0.iq.issued_per_cycle::samples     30508492                       # Number of insts issued each cycle
system.cpu0.iq.issued_per_cycle::mean        0.270879                       # Number of insts issued each cycle
system.cpu0.iq.issued_per_cycle::stdev       0.956058                       # Number of insts issued each cycle
system.cpu0.iq.issued_per_cycle::underflows            0      0.00%      0.00% # Number of insts issued each cycle
system.cpu0.iq.issued_per_cycle::0           27254273     89.33%     89.33% # Number of insts issued each cycle
system.cpu0.iq.issued_per_cycle::1            1222953      4.01%     93.34% # Number of insts issued each cycle
system.cpu0.iq.issued_per_cycle::2             685951      2.25%     95.59% # Number of insts issued each cycle
system.cpu0.iq.issued_per_cycle::3             478377      1.57%     97.16% # Number of insts issued each cycle
system.cpu0.iq.issued_per_cycle::4             467312      1.53%     98.69% # Number of insts issued each cycle
system.cpu0.iq.issued_per_cycle::5             168463      0.55%     99.24% # Number of insts issued each cycle
system.cpu0.iq.issued_per_cycle::6             135386      0.44%     99.69% # Number of insts issued each cycle
system.cpu0.iq.issued_per_cycle::7              55972      0.18%     99.87% # Number of insts issued each cycle
system.cpu0.iq.issued_per_cycle::8              39805      0.13%    100.00% # Number of insts issued each cycle
system.cpu0.iq.issued_per_cycle::overflows            0      0.00%    100.00% # Number of insts issued each cycle
system.cpu0.iq.issued_per_cycle::min_value            0                       # Number of insts issued each cycle
system.cpu0.iq.issued_per_cycle::max_value            8                       # Number of insts issued each cycle
system.cpu0.iq.issued_per_cycle::total       30508492                       # Number of insts issued each cycle
system.cpu0.iq.fu_full::No_OpClass                  0      0.00%      0.00% # attempts to use FU when none available
system.cpu0.iq.fu_full::IntAlu                  24745     73.51%     73.51% # attempts to use FU when none available
system.cpu0.iq.fu_full::IntMult                     0      0.00%     73.51% # attempts to use FU when none available
system.cpu0.iq.fu_full::IntDiv                      0      0.00%     73.51% # attempts to use FU when none available
system.cpu0.iq.fu_full::FloatAdd                 2485      7.38%     80.89% # attempts to use FU when none available
system.cpu0.iq.fu_full::FloatCmp                    0      0.00%     80.89% # attempts to use FU when none available
system.cpu0.iq.fu_full::FloatCvt                    0      0.00%     80.89% # attempts to use FU when none available
system.cpu0.iq.fu_full::FloatMult                   0      0.00%     80.89% # attempts to use FU when none available
system.cpu0.iq.fu_full::FloatMultAcc                0      0.00%     80.89% # attempts to use FU when none available
system.cpu0.iq.fu_full::FloatDiv                    0      0.00%     80.89% # attempts to use FU when none available
system.cpu0.iq.fu_full::FloatMisc                   0      0.00%     80.89% # attempts to use FU when none available
system.cpu0.iq.fu_full::FloatSqrt                   0      0.00%     80.89% # attempts to use FU when none available
system.cpu0.iq.fu_full::SimdAdd                     0      0.00%     80.89% # attempts to use FU when none available
system.cpu0.iq.fu_full::SimdAddAcc                  0      0.00%     80.89% # attempts to use FU when none available
system.cpu0.iq.fu_full::SimdAlu                     0      0.00%     80.89% # attempts to use FU when none available
system.cpu0.iq.fu_full::SimdCmp                     0      0.00%     80.89% # attempts to use FU when none available
system.cpu0.iq.fu_full::SimdCvt                     0      0.00%     80.89% # attempts to use FU when none available
system.cpu0.iq.fu_full::SimdMisc                    0      0.00%     80.89% # attempts to use FU when none available
system.cpu0.iq.fu_full::SimdMult                    0      0.00%     80.89% # attempts to use FU when none available
system.cpu0.iq.fu_full::SimdMultAcc                 0      0.00%     80.89% # attempts to use FU when none available
system.cpu0.iq.fu_full::SimdShift                   0      0.00%     80.89% # attempts to use FU when none available
system.cpu0.iq.fu_full::SimdShiftAcc                0      0.00%     80.89% # attempts to use FU when none available
system.cpu0.iq.fu_full::SimdSqrt                    0      0.00%     80.89% # attempts to use FU when none available
system.cpu0.iq.fu_full::SimdFloatAdd                0      0.00%     80.89% # attempts to use FU when none available
system.cpu0.iq.fu_full::SimdFloatAlu                0      0.00%     80.89% # attempts to use FU when none available
system.cpu0.iq.fu_full::SimdFloatCmp                0      0.00%     80.89% # attempts to use FU when none available
system.cpu0.iq.fu_full::SimdFloatCvt                0      0.00%     80.89% # attempts to use FU when none available
system.cpu0.iq.fu_full::SimdFloatDiv                0      0.00%     80.89% # attempts to use FU when none available
system.cpu0.iq.fu_full::SimdFloatMisc               0      0.00%     80.89% # attempts to use FU when none available
system.cpu0.iq.fu_full::SimdFloatMult               0      0.00%     80.89% # attempts to use FU when none available
system.cpu0.iq.fu_full::SimdFloatMultAcc            0      0.00%     80.89% # attempts to use FU when none available
system.cpu0.iq.fu_full::SimdFloatSqrt               0      0.00%     80.89% # attempts to use FU when none available
system.cpu0.iq.fu_full::MemRead                  5535     16.44%     97.34% # attempts to use FU when none available
system.cpu0.iq.fu_full::MemWrite                  555      1.65%     98.99% # attempts to use FU when none available
system.cpu0.iq.fu_full::FloatMemRead              293      0.87%     99.86% # attempts to use FU when none available
system.cpu0.iq.fu_full::FloatMemWrite              48      0.14%    100.00% # attempts to use FU when none available
system.cpu0.iq.fu_full::IprAccess                   0      0.00%    100.00% # attempts to use FU when none available
system.cpu0.iq.fu_full::InstPrefetch                0      0.00%    100.00% # attempts to use FU when none available
system.cpu0.iq.FU_type_0::No_OpClass            31236      0.38%      0.38% # Type of FU issued
system.cpu0.iq.FU_type_0::IntAlu              6758412     81.78%     82.16% # Type of FU issued
system.cpu0.iq.FU_type_0::IntMult                2309      0.03%     82.19% # Type of FU issued
system.cpu0.iq.FU_type_0::IntDiv                23206      0.28%     82.47% # Type of FU issued
system.cpu0.iq.FU_type_0::FloatAdd              31806      0.38%     82.85% # Type of FU issued
system.cpu0.iq.FU_type_0::FloatCmp                  0      0.00%     82.85% # Type of FU issued
system.cpu0.iq.FU_type_0::FloatCvt                  0      0.00%     82.85% # Type of FU issued
system.cpu0.iq.FU_type_0::FloatMult                 0      0.00%     82.85% # Type of FU issued
system.cpu0.iq.FU_type_0::FloatMultAcc              0      0.00%     82.85% # Type of FU issued
system.cpu0.iq.FU_type_0::FloatDiv                  0      0.00%     82.85% # Type of FU issued
system.cpu0.iq.FU_type_0::FloatMisc                 0      0.00%     82.85% # Type of FU issued
system.cpu0.iq.FU_type_0::FloatSqrt                 0      0.00%     82.85% # Type of FU issued
system.cpu0.iq.FU_type_0::SimdAdd                   0      0.00%     82.85% # Type of FU issued
system.cpu0.iq.FU_type_0::SimdAddAcc                0      0.00%     82.85% # Type of FU issued
system.cpu0.iq.FU_type_0::SimdAlu                   0      0.00%     82.85% # Type of FU issued
system.cpu0.iq.FU_type_0::SimdCmp                   0      0.00%     82.85% # Type of FU issued
system.cpu0.iq.FU_type_0::SimdCvt                   0      0.00%     82.85% # Type of FU issued
system.cpu0.iq.FU_type_0::SimdMisc                  0      0.00%     82.85% # Type of FU issued
system.cpu0.iq.FU_type_0::SimdMult                  0      0.00%     82.85% # Type of FU issued
system.cpu0.iq.FU_type_0::SimdMultAcc               0      0.00%     82.85% # Type of FU issued
system.cpu0.iq.FU_type_0::SimdShift                 0      0.00%     82.85% # Type of FU issued
system.cpu0.iq.FU_type_0::SimdShiftAcc              0      0.00%     82.85% # Type of FU issued
system.cpu0.iq.FU_type_0::SimdSqrt                  0      0.00%     82.85% # Type of FU issued
system.cpu0.iq.FU_type_0::SimdFloatAdd              0      0.00%     82.85% # Type of FU issued
system.cpu0.iq.FU_type_0::SimdFloatAlu              0      0.00%     82.85% # Type of FU issued
system.cpu0.iq.FU_type_0::SimdFloatCmp              0      0.00%     82.85% # Type of FU issued
system.cpu0.iq.FU_type_0::SimdFloatCvt              0      0.00%     82.85% # Type of FU issued
system.cpu0.iq.FU_type_0::SimdFloatDiv              0      0.00%     82.85% # Type of FU issued
system.cpu0.iq.FU_type_0::SimdFloatMisc             0      0.00%     82.85% # Type of FU issued
system.cpu0.iq.FU_type_0::SimdFloatMult             0      0.00%     82.85% # Type of FU issued
system.cpu0.iq.FU_type_0::SimdFloatMultAcc            0      0.00%     82.85% # Type of FU issued
system.cpu0.iq.FU_type_0::SimdFloatSqrt             0      0.00%     82.85% # Type of FU issued
system.cpu0.iq.FU_type_0::MemRead             1290821     15.62%     98.47% # Type of FU issued
system.cpu0.iq.FU_type_0::MemWrite             119817      1.45%     99.92% # Type of FU issued
system.cpu0.iq.FU_type_0::FloatMemRead           6331      0.08%    100.00% # Type of FU issued
system.cpu0.iq.FU_type_0::FloatMemWrite           171      0.00%    100.00% # Type of FU issued
system.cpu0.iq.FU_type_0::IprAccess                 0      0.00%    100.00% # Type of FU issued
system.cpu0.iq.FU_type_0::InstPrefetch              0      0.00%    100.00% # Type of FU issued
system.cpu0.iq.FU_type_0::total               8264109                       # Type of FU issued
system.cpu0.iq.rate                          0.270647                       # Inst issue rate
system.cpu0.iq.fu_busy_cnt                      33661                       # FU busy when requested
system.cpu0.iq.fu_busy_rate                  0.004073                       # FU busy rate (busy events/executed inst)
system.cpu0.iq.int_inst_queue_reads          47002864                       # Number of integer instruction queue reads
system.cpu0.iq.int_inst_queue_writes         17952350                       # Number of integer instruction queue writes
system.cpu0.iq.int_inst_queue_wakeup_accesses      7894309                       # Number of integer instruction queue wakeup accesses
system.cpu0.iq.fp_inst_queue_reads              79964                       # Number of floating instruction queue reads
system.cpu0.iq.fp_inst_queue_writes             69882                       # Number of floating instruction queue writes
system.cpu0.iq.fp_inst_queue_wakeup_accesses        34896                       # Number of floating instruction queue wakeup accesses
system.cpu0.iq.vec_inst_queue_reads                 0                       # Number of vector instruction queue reads
system.cpu0.iq.vec_inst_queue_writes                0                       # Number of vector instruction queue writes
system.cpu0.iq.vec_inst_queue_wakeup_accesses            0                       # Number of vector instruction queue wakeup accesses
system.cpu0.iq.int_alu_accesses               8225388                       # Number of integer alu accesses
system.cpu0.iq.fp_alu_accesses                  41146                       # Number of floating point alu accesses
system.cpu0.iq.vec_alu_accesses                     0                       # Number of vector alu accesses
system.cpu0.iew.lsq.thread0.forwLoads           12069                       # Number of loads that had data forwarded from stores
system.cpu0.iew.lsq.thread0.invAddrLoads            0                       # Number of loads ignored due to an invalid address
system.cpu0.iew.lsq.thread0.squashedLoads      1264455                       # Number of loads squashed
system.cpu0.iew.lsq.thread0.ignoredResponses          431                       # Number of memory responses ignored because the instruction is squashed
system.cpu0.iew.lsq.thread0.memOrderViolation           12                       # Number of memory ordering violations
system.cpu0.iew.lsq.thread0.squashedStores        90448                       # Number of stores squashed
system.cpu0.iew.lsq.thread0.invAddrSwpfs            0                       # Number of software prefetches ignored due to an invalid address
system.cpu0.iew.lsq.thread0.blockedLoads            0                       # Number of blocked loads due to partial load-store forwarding
system.cpu0.iew.lsq.thread0.rescheduledLoads          118                       # Number of loads that were rescheduled
system.cpu0.iew.lsq.thread0.cacheBlocked         1882                       # Number of times an access to memory failed due to the cache being blocked
system.cpu0.iew.iewIdleCycles                       0                       # Number of cycles IEW is idle
system.cpu0.iew.iewSquashCycles                111958                       # Number of cycles IEW is squashing
system.cpu0.iew.iewBlockCycles               23364015                       # Number of cycles IEW is blocking
system.cpu0.iew.iewUnblockCycles               336784                       # Number of cycles IEW is unblocking
system.cpu0.iew.iewDispatchedInsts           11272973                       # Number of instructions dispatched to IQ
system.cpu0.iew.iewDispSquashedInsts             6253                       # Number of squashed instructions skipped by dispatch
system.cpu0.iew.iewDispLoadInsts              2081883                       # Number of dispatched load instructions
system.cpu0.iew.iewDispStoreInsts              159319                       # Number of dispatched store instructions
system.cpu0.iew.iewDispNonSpecInsts              3132                       # Number of dispatched non-speculative instructions
system.cpu0.iew.iewIQFullEvents                 23824                       # Number of times the IQ has become full, causing a stall
system.cpu0.iew.iewLSQFullEvents                56726                       # Number of times the LSQ has become full, causing a stall
system.cpu0.iew.memOrderViolationEvents            12                       # Number of memory order violations
system.cpu0.iew.predictedTakenIncorrect         58486                       # Number of branches that were predicted taken incorrectly
system.cpu0.iew.predictedNotTakenIncorrect        67726                       # Number of branches that were predicted not taken incorrectly
system.cpu0.iew.branchMispredicts              126212                       # Number of branch mispredicts detected at execute
system.cpu0.iew.iewExecutedInsts              8093576                       # Number of executed instructions
system.cpu0.iew.iewExecLoadInsts              1232542                       # Number of load instructions executed
system.cpu0.iew.iewExecSquashedInsts           170537                       # Number of squashed instructions skipped in execute
system.cpu0.iew.exec_swp                            0                       # number of swp insts executed
system.cpu0.iew.exec_nop                            0                       # number of nop insts executed
system.cpu0.iew.exec_refs                     1344412                       # number of memory reference insts executed
system.cpu0.iew.exec_branches                  978832                       # Number of branches executed
system.cpu0.iew.exec_stores                    111870                       # Number of stores executed
system.cpu0.iew.exec_rate                    0.265062                       # Inst execution rate
system.cpu0.iew.wb_sent                       7961099                       # cumulative count of insts sent to commit
system.cpu0.iew.wb_count                      7929205                       # cumulative count of insts written-back
system.cpu0.iew.wb_producers                  5834047                       # num instructions producing a value
system.cpu0.iew.wb_consumers                  9435666                       # num instructions consuming a value
system.cpu0.iew.wb_rate                      0.259679                       # insts written-back per cycle
system.cpu0.iew.wb_fanout                    0.618297                       # average fanout of values written-back
system.cpu0.commit.commitSquashedInsts        6750056                       # The number of squashed insts skipped by commit
system.cpu0.commit.commitNonSpecStalls              1                       # The number of times commit has been forced to stall to communicate backwards
system.cpu0.commit.branchMispredicts           111952                       # The number of times a branch was mispredicted
system.cpu0.commit.committed_per_cycle::samples     29546407                       # Number of insts commited each cycle
system.cpu0.commit.committed_per_cycle::mean     0.153106                       # Number of insts commited each cycle
system.cpu0.commit.committed_per_cycle::stdev     0.742014                       # Number of insts commited each cycle
system.cpu0.commit.committed_per_cycle::underflows            0      0.00%      0.00% # Number of insts commited each cycle
system.cpu0.commit.committed_per_cycle::0     27677660     93.68%     93.68% # Number of insts commited each cycle
system.cpu0.commit.committed_per_cycle::1       829957      2.81%     96.48% # Number of insts commited each cycle
system.cpu0.commit.committed_per_cycle::2       214929      0.73%     97.21% # Number of insts commited each cycle
system.cpu0.commit.committed_per_cycle::3       544978      1.84%     99.06% # Number of insts commited each cycle
system.cpu0.commit.committed_per_cycle::4        96518      0.33%     99.38% # Number of insts commited each cycle
system.cpu0.commit.committed_per_cycle::5        61067      0.21%     99.59% # Number of insts commited each cycle
system.cpu0.commit.committed_per_cycle::6        12066      0.04%     99.63% # Number of insts commited each cycle
system.cpu0.commit.committed_per_cycle::7         8684      0.03%     99.66% # Number of insts commited each cycle
system.cpu0.commit.committed_per_cycle::8       100548      0.34%    100.00% # Number of insts commited each cycle
system.cpu0.commit.committed_per_cycle::overflows            0      0.00%    100.00% # Number of insts commited each cycle
system.cpu0.commit.committed_per_cycle::min_value            0                       # Number of insts commited each cycle
system.cpu0.commit.committed_per_cycle::max_value            8                       # Number of insts commited each cycle
system.cpu0.commit.committed_per_cycle::total     29546407                       # Number of insts commited each cycle
system.cpu0.commit.committedInsts             2265852                       # Number of instructions committed
system.cpu0.commit.committedOps               4523724                       # Number of ops (including micro ops) committed
system.cpu0.commit.swp_count                        0                       # Number of s/w prefetches committed
system.cpu0.commit.refs                        886299                       # Number of memory references committed
system.cpu0.commit.loads                       817428                       # Number of loads committed
system.cpu0.commit.membars                          0                       # Number of memory barriers committed
system.cpu0.commit.branches                    782673                       # Number of branches committed
system.cpu0.commit.vec_insts                        0                       # Number of committed Vector instructions.
system.cpu0.commit.fp_insts                     27574                       # Number of committed floating point instructions.
system.cpu0.commit.int_insts                  4495899                       # Number of committed integer instructions.
system.cpu0.commit.function_calls               12129                       # Number of function calls committed.
system.cpu0.commit.op_class_0::No_OpClass         8286      0.18%      0.18% # Class of committed instruction
system.cpu0.commit.op_class_0::IntAlu         3585049     79.25%     79.43% # Class of committed instruction
system.cpu0.commit.op_class_0::IntMult            485      0.01%     79.44% # Class of committed instruction
system.cpu0.commit.op_class_0::IntDiv           20049      0.44%     79.89% # Class of committed instruction
system.cpu0.commit.op_class_0::FloatAdd         23556      0.52%     80.41% # Class of committed instruction
system.cpu0.commit.op_class_0::FloatCmp             0      0.00%     80.41% # Class of committed instruction
system.cpu0.commit.op_class_0::FloatCvt             0      0.00%     80.41% # Class of committed instruction
system.cpu0.commit.op_class_0::FloatMult            0      0.00%     80.41% # Class of committed instruction
system.cpu0.commit.op_class_0::FloatMultAcc            0      0.00%     80.41% # Class of committed instruction
system.cpu0.commit.op_class_0::FloatDiv             0      0.00%     80.41% # Class of committed instruction
system.cpu0.commit.op_class_0::FloatMisc            0      0.00%     80.41% # Class of committed instruction
system.cpu0.commit.op_class_0::FloatSqrt            0      0.00%     80.41% # Class of committed instruction
system.cpu0.commit.op_class_0::SimdAdd              0      0.00%     80.41% # Class of committed instruction
system.cpu0.commit.op_class_0::SimdAddAcc            0      0.00%     80.41% # Class of committed instruction
system.cpu0.commit.op_class_0::SimdAlu              0      0.00%     80.41% # Class of committed instruction
system.cpu0.commit.op_class_0::SimdCmp              0      0.00%     80.41% # Class of committed instruction
system.cpu0.commit.op_class_0::SimdCvt              0      0.00%     80.41% # Class of committed instruction
system.cpu0.commit.op_class_0::SimdMisc             0      0.00%     80.41% # Class of committed instruction
system.cpu0.commit.op_class_0::SimdMult             0      0.00%     80.41% # Class of committed instruction
system.cpu0.commit.op_class_0::SimdMultAcc            0      0.00%     80.41% # Class of committed instruction
system.cpu0.commit.op_class_0::SimdShift            0      0.00%     80.41% # Class of committed instruction
system.cpu0.commit.op_class_0::SimdShiftAcc            0      0.00%     80.41% # Class of committed instruction
system.cpu0.commit.op_class_0::SimdSqrt             0      0.00%     80.41% # Class of committed instruction
system.cpu0.commit.op_class_0::SimdFloatAdd            0      0.00%     80.41% # Class of committed instruction
system.cpu0.commit.op_class_0::SimdFloatAlu            0      0.00%     80.41% # Class of committed instruction
system.cpu0.commit.op_class_0::SimdFloatCmp            0      0.00%     80.41% # Class of committed instruction
system.cpu0.commit.op_class_0::SimdFloatCvt            0      0.00%     80.41% # Class of committed instruction
system.cpu0.commit.op_class_0::SimdFloatDiv            0      0.00%     80.41% # Class of committed instruction
system.cpu0.commit.op_class_0::SimdFloatMisc            0      0.00%     80.41% # Class of committed instruction
system.cpu0.commit.op_class_0::SimdFloatMult            0      0.00%     80.41% # Class of committed instruction
system.cpu0.commit.op_class_0::SimdFloatMultAcc            0      0.00%     80.41% # Class of committed instruction
system.cpu0.commit.op_class_0::SimdFloatSqrt            0      0.00%     80.41% # Class of committed instruction
system.cpu0.commit.op_class_0::MemRead         813410     17.98%     98.39% # Class of committed instruction
system.cpu0.commit.op_class_0::MemWrite         68871      1.52%     99.91% # Class of committed instruction
system.cpu0.commit.op_class_0::FloatMemRead         4018      0.09%    100.00% # Class of committed instruction
system.cpu0.commit.op_class_0::FloatMemWrite            0      0.00%    100.00% # Class of committed instruction
system.cpu0.commit.op_class_0::IprAccess            0      0.00%    100.00% # Class of committed instruction
system.cpu0.commit.op_class_0::InstPrefetch            0      0.00%    100.00% # Class of committed instruction
system.cpu0.commit.op_class_0::total          4523724                       # Class of committed instruction
system.cpu0.commit.bw_lim_events               100548                       # number cycles where commit BW limit reached
system.cpu0.rob.rob_reads                    40719639                       # The number of ROB reads
system.cpu0.rob.rob_writes                   23512951                       # The number of ROB writes
system.cpu0.timesIdled                            325                       # Number of times that the entire CPU went into an idle state and unscheduled itself
system.cpu0.idleCycles                          26197                       # Total number of cycles that the CPU has spent unscheduled due to idling
system.cpu0.committedInsts                    2265852                       # Number of Instructions Simulated
system.cpu0.committedOps                      4523724                       # Number of Ops (including micro ops) Simulated
system.cpu0.cpi                             13.476030                       # CPI: Cycles Per Instruction
system.cpu0.cpi_total                       13.476030                       # CPI: Total CPI of All Threads
system.cpu0.ipc                              0.074206                       # IPC: Instructions Per Cycle
system.cpu0.ipc_total                        0.074206                       # IPC: Total IPC of All Threads
system.cpu0.int_regfile_reads                 8481949                       # number of integer regfile reads
system.cpu0.int_regfile_writes                6857614                       # number of integer regfile writes
system.cpu0.fp_regfile_reads                    61599                       # number of floating regfile reads
system.cpu0.fp_regfile_writes                   30750                       # number of floating regfile writes
system.cpu0.cc_regfile_reads                  5183337                       # number of cc regfile reads
system.cpu0.cc_regfile_writes                 2258566                       # number of cc regfile writes
system.cpu0.misc_regfile_reads                4184547                       # number of misc regfile reads
system.cpu0.dcache.tags.pwrStateResidencyTicks::UNDEFINED  15267344125                       # Cumulative time (in ticks) in various power states
system.cpu0.dcache.tags.replacements           407650                       # number of replacements
system.cpu0.dcache.tags.tagsinuse                1024                       # Cycle average of tags in use
system.cpu0.dcache.tags.total_refs             580186                       # Total number of references to valid blocks.
system.cpu0.dcache.tags.sampled_refs           407650                       # Sample count of references to valid blocks.
system.cpu0.dcache.tags.avg_refs             1.423245                       # Average number of references to valid blocks.
system.cpu0.dcache.tags.warmup_cycle                0                       # Cycle when the warmup percentage was hit.
system.cpu0.dcache.tags.occ_blocks::cpu0.data         1024                       # Average occupied blocks per requestor
system.cpu0.dcache.tags.occ_percent::cpu0.data            1                       # Average percentage of cache occupancy
system.cpu0.dcache.tags.occ_percent::total            1                       # Average percentage of cache occupancy
system.cpu0.dcache.tags.occ_task_id_blocks::1024         1024                       # Occupied blocks per task id
system.cpu0.dcache.tags.age_task_id_blocks_1024::0          461                       # Occupied blocks per task id
system.cpu0.dcache.tags.age_task_id_blocks_1024::1          547                       # Occupied blocks per task id
system.cpu0.dcache.tags.age_task_id_blocks_1024::2           16                       # Occupied blocks per task id
system.cpu0.dcache.tags.occ_task_id_percent::1024            1                       # Percentage of cache occupancy per task id
system.cpu0.dcache.tags.tag_accesses          5534750                       # Number of tag accesses
system.cpu0.dcache.tags.data_accesses         5534750                       # Number of data accesses
system.cpu0.dcache.pwrStateResidencyTicks::UNDEFINED  15267344125                       # Cumulative time (in ticks) in various power states
system.cpu0.dcache.ReadReq_hits::cpu0.data       512421                       # number of ReadReq hits
system.cpu0.dcache.ReadReq_hits::total         512421                       # number of ReadReq hits
system.cpu0.dcache.WriteReq_hits::cpu0.data        67150                       # number of WriteReq hits
system.cpu0.dcache.WriteReq_hits::total         67150                       # number of WriteReq hits
system.cpu0.dcache.demand_hits::cpu0.data       579571                       # number of demand (read+write) hits
system.cpu0.dcache.demand_hits::total          579571                       # number of demand (read+write) hits
system.cpu0.dcache.overall_hits::cpu0.data       579571                       # number of overall hits
system.cpu0.dcache.overall_hits::total         579571                       # number of overall hits
system.cpu0.dcache.ReadReq_misses::cpu0.data       700483                       # number of ReadReq misses
system.cpu0.dcache.ReadReq_misses::total       700483                       # number of ReadReq misses
system.cpu0.dcache.WriteReq_misses::cpu0.data         1721                       # number of WriteReq misses
system.cpu0.dcache.WriteReq_misses::total         1721                       # number of WriteReq misses
system.cpu0.dcache.demand_misses::cpu0.data       702204                       # number of demand (read+write) misses
system.cpu0.dcache.demand_misses::total        702204                       # number of demand (read+write) misses
system.cpu0.dcache.overall_misses::cpu0.data       702204                       # number of overall misses
system.cpu0.dcache.overall_misses::total       702204                       # number of overall misses
system.cpu0.dcache.ReadReq_miss_latency::cpu0.data  33329611000                       # number of ReadReq miss cycles
system.cpu0.dcache.ReadReq_miss_latency::total  33329611000                       # number of ReadReq miss cycles
system.cpu0.dcache.WriteReq_miss_latency::cpu0.data     82428500                       # number of WriteReq miss cycles
system.cpu0.dcache.WriteReq_miss_latency::total     82428500                       # number of WriteReq miss cycles
system.cpu0.dcache.demand_miss_latency::cpu0.data  33412039500                       # number of demand (read+write) miss cycles
system.cpu0.dcache.demand_miss_latency::total  33412039500                       # number of demand (read+write) miss cycles
system.cpu0.dcache.overall_miss_latency::cpu0.data  33412039500                       # number of overall miss cycles
system.cpu0.dcache.overall_miss_latency::total  33412039500                       # number of overall miss cycles
system.cpu0.dcache.ReadReq_accesses::cpu0.data      1212904                       # number of ReadReq accesses(hits+misses)
system.cpu0.dcache.ReadReq_accesses::total      1212904                       # number of ReadReq accesses(hits+misses)
system.cpu0.dcache.WriteReq_accesses::cpu0.data        68871                       # number of WriteReq accesses(hits+misses)
system.cpu0.dcache.WriteReq_accesses::total        68871                       # number of WriteReq accesses(hits+misses)
system.cpu0.dcache.demand_accesses::cpu0.data      1281775                       # number of demand (read+write) accesses
system.cpu0.dcache.demand_accesses::total      1281775                       # number of demand (read+write) accesses
system.cpu0.dcache.overall_accesses::cpu0.data      1281775                       # number of overall (read+write) accesses
system.cpu0.dcache.overall_accesses::total      1281775                       # number of overall (read+write) accesses
system.cpu0.dcache.ReadReq_miss_rate::cpu0.data     0.577526                       # miss rate for ReadReq accesses
[...]
system.l2.ReadExReq_miss_rate::cpu0.data     0.387229                       # miss rate for ReadExReq accesses
system.l2.ReadExReq_miss_rate::total         0.387229                       # miss rate for ReadExReq accesses
system.l2.ReadCleanReq_miss_rate::cpu0.inst     0.333333                       # miss rate for ReadCleanReq accesses
system.l2.ReadCleanReq_miss_rate::total      0.333333                       # miss rate for ReadCleanReq accesses
system.l2.ReadSharedReq_miss_rate::cpu0.data     0.391539                       # miss rate for ReadSharedReq accesses
system.l2.ReadSharedReq_miss_rate::total     0.391539                       # miss rate for ReadSharedReq accesses
system.l2.demand_miss_rate::cpu0.inst        0.333333                       # miss rate for demand accesses
system.l2.demand_miss_rate::cpu0.data        0.391521                       # miss rate for demand accesses
system.l2.demand_miss_rate::total            0.391521                       # miss rate for demand accesses
system.l2.overall_miss_rate::cpu0.inst       0.333333                       # miss rate for overall accesses
system.l2.overall_miss_rate::cpu0.data       0.391521                       # miss rate for overall accesses
system.l2.overall_miss_rate::total           0.391521                       # miss rate for overall accesses
system.l2.ReadExReq_avg_miss_latency::cpu0.data 99103.630862                       # average ReadExReq miss latency
system.l2.ReadExReq_avg_miss_latency::total 99103.630862                       # average ReadExReq miss latency
system.l2.ReadCleanReq_avg_miss_latency::cpu0.inst       100500                       # average ReadCleanReq miss latency
system.l2.ReadCleanReq_avg_miss_latency::total       100500                       # average ReadCleanReq miss latency
system.l2.ReadSharedReq_avg_miss_latency::cpu0.data 95792.416149                       # average ReadSharedReq miss latency
system.l2.ReadSharedReq_avg_miss_latency::total 95792.416149                       # average ReadSharedReq miss latency
system.l2.demand_avg_miss_latency::cpu0.inst       100500                       # average overall miss latency
system.l2.demand_avg_miss_latency::cpu0.data 95806.129546                       # average overall miss latency
system.l2.demand_avg_miss_latency::total 95806.158955                       # average overall miss latency
system.l2.overall_avg_miss_latency::cpu0.inst       100500                       # average overall miss latency
system.l2.overall_avg_miss_latency::cpu0.data 95806.129546                       # average overall miss latency
system.l2.overall_avg_miss_latency::total 95806.158955                       # average overall miss latency
system.l2.blocked_cycles::no_mshrs                  0                       # number of cycles access was blocked
system.l2.blocked_cycles::no_targets                0                       # number of cycles access was blocked
system.l2.blocked::no_mshrs                         0                       # number of cycles access was blocked
system.l2.blocked::no_targets                       0                       # number of cycles access was blocked
system.l2.avg_blocked_cycles::no_mshrs            nan                       # average number of cycles each access was blocked
system.l2.avg_blocked_cycles::no_targets          nan                       # average number of cycles each access was blocked
system.l2.writebacks::writebacks                  935                       # number of writebacks
system.l2.writebacks::total                       935                       # number of writebacks
system.l2.ReadExReq_mshr_misses::cpu0.data          661                       # number of ReadExReq MSHR misses
system.l2.ReadExReq_mshr_misses::total            661                       # number of ReadExReq MSHR misses
system.l2.ReadCleanReq_mshr_misses::cpu0.inst            1                       # number of ReadCleanReq MSHR misses
system.l2.ReadCleanReq_mshr_misses::total            1                       # number of ReadCleanReq MSHR misses
system.l2.ReadSharedReq_mshr_misses::cpu0.data       158943                       # number of ReadSharedReq MSHR misses
system.l2.ReadSharedReq_mshr_misses::total       158943                       # number of ReadSharedReq MSHR misses
system.l2.demand_mshr_misses::cpu0.inst             1                       # number of demand (read+write) MSHR misses
system.l2.demand_mshr_misses::cpu0.data        159604                       # number of demand (read+write) MSHR misses
system.l2.demand_mshr_misses::total            159605                       # number of demand (read+write) MSHR misses
system.l2.overall_mshr_misses::cpu0.inst            1                       # number of overall MSHR misses
system.l2.overall_mshr_misses::cpu0.data       159604                       # number of overall MSHR misses
system.l2.overall_mshr_misses::total           159605                       # number of overall MSHR misses
system.l2.ReadExReq_mshr_miss_latency::cpu0.data     58897500                       # number of ReadExReq MSHR miss cycles
system.l2.ReadExReq_mshr_miss_latency::total     58897500                       # number of ReadExReq MSHR miss cycles
system.l2.ReadCleanReq_mshr_miss_latency::cpu0.inst        90500                       # number of ReadCleanReq MSHR miss cycles
system.l2.ReadCleanReq_mshr_miss_latency::total        90500                       # number of ReadCleanReq MSHR miss cycles
system.l2.ReadSharedReq_mshr_miss_latency::cpu0.data  13636114000                       # number of ReadSharedReq MSHR miss cycles
system.l2.ReadSharedReq_mshr_miss_latency::total  13636114000                       # number of ReadSharedReq MSHR miss cycles
system.l2.demand_mshr_miss_latency::cpu0.inst        90500                       # number of demand (read+write) MSHR miss cycles
system.l2.demand_mshr_miss_latency::cpu0.data  13695011500                       # number of demand (read+write) MSHR miss cycles
system.l2.demand_mshr_miss_latency::total  13695102000                       # number of demand (read+write) MSHR miss cycles
system.l2.overall_mshr_miss_latency::cpu0.inst        90500                       # number of overall MSHR miss cycles
system.l2.overall_mshr_miss_latency::cpu0.data  13695011500                       # number of overall MSHR miss cycles
system.l2.overall_mshr_miss_latency::total  13695102000                       # number of overall MSHR miss cycles
system.l2.ReadExReq_mshr_miss_rate::cpu0.data     0.387229                       # mshr miss rate for ReadExReq accesses
system.l2.ReadExReq_mshr_miss_rate::total     0.387229                       # mshr miss rate for ReadExReq accesses
system.l2.ReadCleanReq_mshr_miss_rate::cpu0.inst     0.333333                       # mshr miss rate for ReadCleanReq accesses
system.l2.ReadCleanReq_mshr_miss_rate::total     0.333333                       # mshr miss rate for ReadCleanReq accesses
system.l2.ReadSharedReq_mshr_miss_rate::cpu0.data     0.391539                       # mshr miss rate for ReadSharedReq accesses
system.l2.ReadSharedReq_mshr_miss_rate::total     0.391539                       # mshr miss rate for ReadSharedReq accesses
system.l2.demand_mshr_miss_rate::cpu0.inst     0.333333                       # mshr miss rate for demand accesses
system.l2.demand_mshr_miss_rate::cpu0.data     0.391521                       # mshr miss rate for demand accesses
system.l2.demand_mshr_miss_rate::total       0.391521                       # mshr miss rate for demand accesses
system.l2.overall_mshr_miss_rate::cpu0.inst     0.333333                       # mshr miss rate for overall accesses
system.l2.overall_mshr_miss_rate::cpu0.data     0.391521                       # mshr miss rate for overall accesses
system.l2.overall_mshr_miss_rate::total      0.391521                       # mshr miss rate for overall accesses
system.l2.ReadExReq_avg_mshr_miss_latency::cpu0.data 89103.630862                       # average ReadExReq mshr miss latency
system.l2.ReadExReq_avg_mshr_miss_latency::total 89103.630862                       # average ReadExReq mshr miss latency
system.l2.ReadCleanReq_avg_mshr_miss_latency::cpu0.inst        90500                       # average ReadCleanReq mshr miss latency
system.l2.ReadCleanReq_avg_mshr_miss_latency::total        90500                       # average ReadCleanReq mshr miss latency
system.l2.ReadSharedReq_avg_mshr_miss_latency::cpu0.data 85792.479065                       # average ReadSharedReq mshr miss latency
system.l2.ReadSharedReq_avg_mshr_miss_latency::total 85792.479065                       # average ReadSharedReq mshr miss latency
system.l2.demand_avg_mshr_miss_latency::cpu0.inst        90500                       # average overall mshr miss latency
system.l2.demand_avg_mshr_miss_latency::cpu0.data 85806.192201                       # average overall mshr miss latency
system.l2.demand_avg_mshr_miss_latency::total 85806.221610                       # average overall mshr miss latency
system.l2.overall_avg_mshr_miss_latency::cpu0.inst        90500                       # average overall mshr miss latency
system.l2.overall_avg_mshr_miss_latency::cpu0.data 85806.192201                       # average overall mshr miss latency
system.l2.overall_avg_mshr_miss_latency::total 85806.221610                       # average overall mshr miss latency
system.membus.snoop_filter.tot_requests        319207                       # Total number of requests made to the snoop filter.
system.membus.snoop_filter.hit_single_requests       159604                       # Number of requests hitting in the snoop filter with a single holder of the requested data.
system.membus.snoop_filter.hit_multi_requests            0                       # Number of requests hitting in the snoop filter with multiple (>1) holders of the requested data.
system.membus.snoop_filter.tot_snoops               0                       # Total number of snoops made to the snoop filter.
system.membus.snoop_filter.hit_single_snoops            0                       # Number of snoops hitting in the snoop filter with a single holder of the requested data.
system.membus.snoop_filter.hit_multi_snoops            0                       # Number of snoops hitting in the snoop filter with multiple (>1) holders of the requested data.
system.membus.pwrStateResidencyTicks::UNDEFINED  15267344125                       # Cumulative time (in ticks) in various power states
system.membus.trans_dist::ReadResp             158943                       # Transaction distribution
system.membus.trans_dist::WritebackDirty          935                       # Transaction distribution
system.membus.trans_dist::CleanEvict           158667                       # Transaction distribution
system.membus.trans_dist::ReadExReq               661                       # Transaction distribution
system.membus.trans_dist::ReadExResp              661                       # Transaction distribution
system.membus.trans_dist::ReadSharedReq        158944                       # Transaction distribution
system.membus.pkt_count_system.l2.mem_side::system.mem_ctrls.port       478811                       # Packet count per connected master and slave (bytes)
system.membus.pkt_count_system.l2.mem_side::total       478811                       # Packet count per connected master and slave (bytes)
system.membus.pkt_count::total                 478811                       # Packet count per connected master and slave (bytes)
system.membus.pkt_size_system.l2.mem_side::system.mem_ctrls.port     10274496                       # Cumulative packet size per connected master and slave (bytes)
system.membus.pkt_size_system.l2.mem_side::total     10274496                       # Cumulative packet size per connected master and slave (bytes)
system.membus.pkt_size::total                10274496                       # Cumulative packet size per connected master and slave (bytes)
system.membus.snoops                                0                       # Total snoops (count)
system.membus.snoopTraffic                          0                       # Total snoop traffic (bytes)
system.membus.snoop_fanout::samples            159605                       # Request fanout histogram
system.membus.snoop_fanout::mean                    0                       # Request fanout histogram
system.membus.snoop_fanout::stdev                   0                       # Request fanout histogram
system.membus.snoop_fanout::underflows              0      0.00%      0.00% # Request fanout histogram
system.membus.snoop_fanout::0                  159605    100.00%    100.00% # Request fanout histogram
system.membus.snoop_fanout::1                       0      0.00%    100.00% # Request fanout histogram
system.membus.snoop_fanout::overflows               0      0.00%    100.00% # Request fanout histogram
system.membus.snoop_fanout::min_value               0                       # Request fanout histogram
system.membus.snoop_fanout::max_value               0                       # Request fanout histogram
system.membus.snoop_fanout::total              159605                       # Request fanout histogram
system.membus.reqLayer8.occupancy           375918500                       # Layer occupancy (ticks)
system.membus.reqLayer8.utilization               2.5                       # Layer utilization (%)
system.membus.respLayer1.occupancy          868920000                       # Layer occupancy (ticks)
system.membus.respLayer1.utilization              5.7                       # Layer utilization (%)
system.tol2bus.snoop_filter.tot_requests       815307                       # Total number of requests made to the snoop filter.
system.tol2bus.snoop_filter.hit_single_requests       407653                       # Number of requests hitting in the snoop filter with a single holder of the requested data.
system.tol2bus.snoop_filter.hit_multi_requests          861                       # Number of requests hitting in the snoop filter with multiple (>1) holders of the requested data.
system.tol2bus.snoop_filter.tot_snoops              4                       # Total number of snoops made to the snoop filter.
system.tol2bus.snoop_filter.hit_single_snoops            4                       # Number of snoops hitting in the snoop filter with a single holder of the requested data.
system.tol2bus.snoop_filter.hit_multi_snoops            0                       # Number of snoops hitting in the snoop filter with multiple (>1) holders of the requested data.
system.tol2bus.pwrStateResidencyTicks::UNDEFINED  15267344125                       # Cumulative time (in ticks) in various power states
system.tol2bus.trans_dist::ReadResp            405946                       # Transaction distribution
system.tol2bus.trans_dist::WritebackDirty         6176                       # Transaction distribution
system.tol2bus.trans_dist::WritebackClean            3                       # Transaction distribution
system.tol2bus.trans_dist::CleanEvict          561080                       # Transaction distribution
system.tol2bus.trans_dist::ReadExReq             1707                       # Transaction distribution
system.tol2bus.trans_dist::ReadExResp            1707                       # Transaction distribution
system.tol2bus.trans_dist::ReadCleanReq             3                       # Transaction distribution
system.tol2bus.trans_dist::ReadSharedReq       405944                       # Transaction distribution
system.tol2bus.pkt_count_system.cpu0.icache.mem_side::system.l2.cpu_side            9                       # Packet count per connected master and slave (bytes)
system.tol2bus.pkt_count_system.cpu0.dcache.mem_side::system.l2.cpu_side      1222951                       # Packet count per connected master and slave (bytes)
system.tol2bus.pkt_count::total               1222960                       # Packet count per connected master and slave (bytes)
system.tol2bus.pkt_size_system.cpu0.icache.mem_side::system.l2.cpu_side          384                       # Cumulative packet size per connected master and slave (bytes)
system.tol2bus.pkt_size_system.cpu0.dcache.mem_side::system.l2.cpu_side     26425024                       # Cumulative packet size per connected master and slave (bytes)
system.tol2bus.pkt_size::total               26425408                       # Cumulative packet size per connected master and slave (bytes)
system.tol2bus.snoops                          159606                       # Total snoops (count)
system.tol2bus.snoopTraffic                     59840                       # Total snoop traffic (bytes)
system.tol2bus.snoop_fanout::samples           567260                       # Request fanout histogram
system.tol2bus.snoop_fanout::mean            0.001525                       # Request fanout histogram
system.tol2bus.snoop_fanout::stdev           0.039020                       # Request fanout histogram
system.tol2bus.snoop_fanout::underflows             0      0.00%      0.00% # Request fanout histogram
system.tol2bus.snoop_fanout::0                 566395     99.85%     99.85% # Request fanout histogram
system.tol2bus.snoop_fanout::1                    865      0.15%    100.00% # Request fanout histogram
system.tol2bus.snoop_fanout::2                      0      0.00%    100.00% # Request fanout histogram
system.tol2bus.snoop_fanout::3                      0      0.00%    100.00% # Request fanout histogram
system.tol2bus.snoop_fanout::4                      0      0.00%    100.00% # Request fanout histogram
system.tol2bus.snoop_fanout::5                      0      0.00%    100.00% # Request fanout histogram
system.tol2bus.snoop_fanout::6                      0      0.00%    100.00% # Request fanout histogram
system.tol2bus.snoop_fanout::7                      0      0.00%    100.00% # Request fanout histogram
system.tol2bus.snoop_fanout::8                      0      0.00%    100.00% # Request fanout histogram
system.tol2bus.snoop_fanout::9                      0      0.00%    100.00% # Request fanout histogram
system.tol2bus.snoop_fanout::10                     0      0.00%    100.00% # Request fanout histogram
system.tol2bus.snoop_fanout::11                     0      0.00%    100.00% # Request fanout histogram
system.tol2bus.snoop_fanout::12                     0      0.00%    100.00% # Request fanout histogram
system.tol2bus.snoop_fanout::13                     0      0.00%    100.00% # Request fanout histogram
system.tol2bus.snoop_fanout::14                     0      0.00%    100.00% # Request fanout histogram
system.tol2bus.snoop_fanout::15                     0      0.00%    100.00% # Request fanout histogram
system.tol2bus.snoop_fanout::16                     0      0.00%    100.00% # Request fanout histogram
system.tol2bus.snoop_fanout::overflows              0      0.00%    100.00% # Request fanout histogram
system.tol2bus.snoop_fanout::min_value              0                       # Request fanout histogram
system.tol2bus.snoop_fanout::max_value              1                       # Request fanout histogram
system.tol2bus.snoop_fanout::total             567260                       # Request fanout histogram
system.tol2bus.reqLayer0.occupancy          412897500                       # Layer occupancy (ticks)
system.tol2bus.reqLayer0.utilization              2.7                       # Layer utilization (%)
system.tol2bus.respLayer0.occupancy              4500                       # Layer occupancy (ticks)
system.tol2bus.respLayer0.utilization             0.0                       # Layer utilization (%)
system.tol2bus.respLayer1.occupancy         611475000                       # Layer occupancy (ticks)
system.tol2bus.respLayer1.utilization             4.0                       # Layer utilization (%)

---------- End Simulation Statistics   ----------
