
---------- Begin Simulation Statistics ----------
sim_seconds                                  0.015267                       # Number of seconds simulated
sim_ticks                                 15267344125                       # Number of ticks simulated
final_tick                               2549646468875                       # Number of ticks from beginning of simulation (restored from checkpoints and never reset)
sim_freq                                 1000000000000                       # Frequency of simulated ticks
host_inst_rate                               48030335                       # Simulator instruction rate (inst/s)
host_op_rate                                 88801910                       # Simulator op (including micro ops) rate (op/s)
host_tick_rate                              135771438                       # Simulator tick rate (ticks/s)
host_mem_usage                                2332528                       # Number of bytes of host memory used
host_seconds                                   112.45                       # Real time elapsed on the host
sim_insts                                  5400955783                       # Number of instructions simulated
sim_ops                                    9985673276                       # Number of ops (including micro ops) simulated
system.voltage_domain.voltage                       1                       # Voltage in Volts
system.clk_domain.clock                          1000                       # Clock period in ticks
system.mem_ctrls.pwrStateResidencyTicks::UNDEFINED  15267344125                       # Cumulative time (in ticks) in various power states
system.mem_ctrls.bytes_read::cpu0.data        8324032                       # Number of bytes read from this memory
system.mem_ctrls.bytes_read::total            8324032                       # Number of bytes read from this memory
system.mem_ctrls.bytes_written::writebacks        78848                       # Number of bytes written to this memory
system.mem_ctrls.bytes_written::total           78848                       # Number of bytes written to this memory
system.mem_ctrls.num_reads::cpu0.data          130063                       # Number of read requests responded to by this memory
system.mem_ctrls.num_reads::total              130063                       # Number of read requests responded to by this memory
system.mem_ctrls.num_writes::writebacks          1232                       # Number of write requests responded to by this memory
system.mem_ctrls.num_writes::total               1232                       # Number of write requests responded to by this memory
system.mem_ctrls.bw_read::cpu0.data         545218077                       # Total read bandwidth from this memory (bytes/s)
system.mem_ctrls.bw_read::total             545218077                       # Total read bandwidth from this memory (bytes/s)
system.mem_ctrls.bw_write::writebacks         5164487                       # Write bandwidth from this memory (bytes/s)
system.mem_ctrls.bw_write::total              5164487                       # Write bandwidth from this memory (bytes/s)
system.mem_ctrls.bw_total::writebacks         5164487                       # Total bandwidth to/from this memory (bytes/s)
system.mem_ctrls.bw_total::cpu0.data        545218077                       # Total bandwidth to/from this memory (bytes/s)
system.mem_ctrls.bw_total::total            550382564                       # Total bandwidth to/from this memory (bytes/s)
system.mem_ctrls.readReqs                      130062                       # Number of read requests accepted
system.mem_ctrls.writeReqs                       1232                       # Number of write requests accepted
system.mem_ctrls.readBursts                    130062                       # Number of DRAM read bursts, including those serviced by the write queue
system.mem_ctrls.writeBursts                     1232                       # Number of DRAM write bursts, including those merged in the write queue
system.mem_ctrls.bytesReadDRAM                8323776                       # Total number of bytes read from DRAM
system.mem_ctrls.bytesReadWrQ                     192                       # Total number of bytes read from write queue
system.mem_ctrls.bytesWritten                   77952                       # Total number of bytes written to DRAM
system.mem_ctrls.bytesReadSys                 8323968                       # Total read bytes from the system interface side
system.mem_ctrls.bytesWrittenSys                78848                       # Total written bytes from the system interface side
system.mem_ctrls.servicedByWrQ                      3                       # Number of DRAM read bursts serviced by the write queue
system.mem_ctrls.mergedWrBursts                     0                       # Number of DRAM write bursts merged with an existing one
system.mem_ctrls.neitherReadNorWriteReqs            0                       # Number of requests that are neither read nor write
system.mem_ctrls.perBankRdBursts::0              8051                       # Per bank write bursts
system.mem_ctrls.perBankRdBursts::1              8374                       # Per bank write bursts
system.mem_ctrls.perBankRdBursts::2              8046                       # Per bank write bursts
system.mem_ctrls.perBankRdBursts::3              8075                       # Per bank write bursts
system.mem_ctrls.perBankRdBursts::4              8151                       # Per bank write bursts
system.mem_ctrls.perBankRdBursts::5              8051                       # Per bank write bursts
system.mem_ctrls.perBankRdBursts::6              8383                       # Per bank write bursts
system.mem_ctrls.perBankRdBursts::7              8377                       # Per bank write bursts
system.mem_ctrls.perBankRdBursts::8              8317                       # Per bank write bursts
system.mem_ctrls.perBankRdBursts::9              8016                       # Per bank write bursts
system.mem_ctrls.perBankRdBursts::10             8347                       # Per bank write bursts
system.mem_ctrls.perBankRdBursts::11             8207                       # Per bank write bursts
system.mem_ctrls.perBankRdBursts::12             8041                       # Per bank write bursts
system.mem_ctrls.perBankRdBursts::13             7848                       # Per bank write bursts
system.mem_ctrls.perBankRdBursts::14             7794                       # Per bank write bursts
system.mem_ctrls.perBankRdBursts::15             7981                       # Per bank write bursts
system.mem_ctrls.perBankWrBursts::0                66                       # Per bank write bursts
system.mem_ctrls.perBankWrBursts::1                68                       # Per bank write bursts
system.mem_ctrls.perBankWrBursts::2               103                       # Per bank write bursts
system.mem_ctrls.perBankWrBursts::3                28                       # Per bank write bursts
system.mem_ctrls.perBankWrBursts::4                44                       # Per bank write bursts
system.mem_ctrls.perBankWrBursts::5                52                       # Per bank write bursts
system.mem_ctrls.perBankWrBursts::6               152                       # Per bank write bursts
system.mem_ctrls.perBankWrBursts::7                68                       # Per bank write bursts
system.mem_ctrls.perBankWrBursts::8               100                       # Per bank write bursts
system.mem_ctrls.perBankWrBursts::9               107                       # Per bank write bursts
system.mem_ctrls.perBankWrBursts::10               66                       # Per bank write bursts
system.mem_ctrls.perBankWrBursts::11               96                       # Per bank write bursts
system.mem_ctrls.perBankWrBursts::12              124                       # Per bank write bursts
system.mem_ctrls.perBankWrBursts::13               56                       # Per bank write bursts
system.mem_ctrls.perBankWrBursts::14               28                       # Per bank write bursts
system.mem_ctrls.perBankWrBursts::15               60                       # Per bank write bursts
system.mem_ctrls.numRdRetry                         0                       # Number of times read queue was full causing retry
system.mem_ctrls.numWrRetry                         0                       # Number of times write queue was full causing retry
system.mem_ctrls.totGap                   15267285500                       # Total gap between requests
system.mem_ctrls.readPktSize::0                     0                       # Read request sizes (log2)
system.mem_ctrls.readPktSize::1                     0                       # Read request sizes (log2)
system.mem_ctrls.readPktSize::2                     0                       # Read request sizes (log2)
system.mem_ctrls.readPktSize::3                     0                       # Read request sizes (log2)
system.mem_ctrls.readPktSize::4                     0                       # Read request sizes (log2)
system.mem_ctrls.readPktSize::5                     0                       # Read request sizes (log2)
system.mem_ctrls.readPktSize::6                130062                       # Read request sizes (log2)
system.mem_ctrls.writePktSize::0                    0                       # Write request sizes (log2)
system.mem_ctrls.writePktSize::1                    0                       # Write request sizes (log2)
system.mem_ctrls.writePktSize::2                    0                       # Write request sizes (log2)
system.mem_ctrls.writePktSize::3                    0                       # Write request sizes (log2)
system.mem_ctrls.writePktSize::4                    0                       # Write request sizes (log2)
system.mem_ctrls.writePktSize::5                    0                       # Write request sizes (log2)
system.mem_ctrls.writePktSize::6                 1232                       # Write request sizes (log2)
system.mem_ctrls.rdQLenPdf::0                  126722                       # What read queue length does an incoming req see
system.mem_ctrls.rdQLenPdf::1                    2335                       # What read queue length does an incoming req see
system.mem_ctrls.rdQLenPdf::2                     989                       # What read queue length does an incoming req see
system.mem_ctrls.rdQLenPdf::3                      13                       # What read queue length does an incoming req see
system.mem_ctrls.rdQLenPdf::4                       0                       # What read queue length does an incoming req see
system.mem_ctrls.rdQLenPdf::5                       0                       # What read queue length does an incoming req see
system.mem_ctrls.rdQLenPdf::6                       0                       # What read queue length does an incoming req see
system.mem_ctrls.rdQLenPdf::7                       0                       # What read queue length does an incoming req see
system.mem_ctrls.rdQLenPdf::8                       0                       # What read queue length does an incoming req see
system.mem_ctrls.rdQLenPdf::9                       0                       # What read queue length does an incoming req see
system.mem_ctrls.rdQLenPdf::10                      0                       # What read queue length does an incoming req see
system.mem_ctrls.rdQLenPdf::11                      0                       # What read queue length does an incoming req see
system.mem_ctrls.rdQLenPdf::12                      0                       # What read queue length does an incoming req see
system.mem_ctrls.rdQLenPdf::13                      0                       # What read queue length does an incoming req see
system.mem_ctrls.rdQLenPdf::14                      0                       # What read queue length does an incoming req see
system.mem_ctrls.rdQLenPdf::15                      0                       # What read queue length does an incoming req see
system.mem_ctrls.rdQLenPdf::16                      0                       # What read queue length does an incoming req see
system.mem_ctrls.rdQLenPdf::17                      0                       # What read queue length does an incoming req see
system.mem_ctrls.rdQLenPdf::18                      0                       # What read queue length does an incoming req see
system.mem_ctrls.rdQLenPdf::19                      0                       # What read queue length does an incoming req see
system.mem_ctrls.rdQLenPdf::20                      0                       # What read queue length does an incoming req see
system.mem_ctrls.rdQLenPdf::21                      0                       # What read queue length does an incoming req see
system.mem_ctrls.rdQLenPdf::22                      0                       # What read queue length does an incoming req see
system.mem_ctrls.rdQLenPdf::23                      0                       # What read queue length does an incoming req see
system.mem_ctrls.rdQLenPdf::24                      0                       # What read queue length does an incoming req see
system.mem_ctrls.rdQLenPdf::25                      0                       # What read queue length does an incoming req see
system.mem_ctrls.rdQLenPdf::26                      0                       # What read queue length does an incoming req see
system.mem_ctrls.rdQLenPdf::27                      0                       # What read queue length does an incoming req see
system.mem_ctrls.rdQLenPdf::28                      0                       # What read queue length does an incoming req see
system.mem_ctrls.rdQLenPdf::29                      0                       # What read queue length does an incoming req see
system.mem_ctrls.rdQLenPdf::30                      0                       # What read queue length does an incoming req see
system.mem_ctrls.rdQLenPdf::31                      0                       # What read queue length does an incoming req see
system.mem_ctrls.wrQLenPdf::0                       0                       # What write queue length does an incoming req see
system.mem_ctrls.wrQLenPdf::1                       0                       # What write queue length does an incoming req see
system.mem_ctrls.wrQLenPdf::2                       0                       # What write queue length does an incoming req see
system.mem_ctrls.wrQLenPdf::3                       0                       # What write queue length does an incoming req see
system.mem_ctrls.wrQLenPdf::4                       0                       # What write queue length does an incoming req see
system.mem_ctrls.wrQLenPdf::5                       0                       # What write queue length does an incoming req see
system.mem_ctrls.wrQLenPdf::6                       0                       # What write queue length does an incoming req see
system.mem_ctrls.wrQLenPdf::7                       0                       # What write queue length does an incoming req see
system.mem_ctrls.wrQLenPdf::8                       0                       # What write queue length does an incoming req see
system.mem_ctrls.wrQLenPdf::9                       0                       # What write queue length does an incoming req see
system.mem_ctrls.wrQLenPdf::10                      0                       # What write queue length does an incoming req see
system.mem_ctrls.wrQLenPdf::11                      0                       # What write queue length does an incoming req see
system.mem_ctrls.wrQLenPdf::12                      0                       # What write queue length does an incoming req see
system.mem_ctrls.wrQLenPdf::13                      0                       # What write queue length does an incoming req see
system.mem_ctrls.wrQLenPdf::14                      0                       # What write queue length does an incoming req see
system.mem_ctrls.wrQLenPdf::15                      9                       # What write queue length does an incoming req see
system.mem_ctrls.wrQLenPdf::16                      9                       # What write queue length does an incoming req see
system.mem_ctrls.wrQLenPdf::17                     76                       # What write queue length does an incoming req see
system.mem_ctrls.wrQLenPdf::18                     76                       # What write queue length does an incoming req see
system.mem_ctrls.wrQLenPdf::19                     76                       # What write queue length does an incoming req see
system.mem_ctrls.wrQLenPdf::20                     76                       # What write queue length does an incoming req see
system.mem_ctrls.wrQLenPdf::21                     76                       # What write queue length does an incoming req see
system.mem_ctrls.wrQLenPdf::22                     76                       # What write queue length does an incoming req see
system.mem_ctrls.wrQLenPdf::23                     76                       # What write queue length does an incoming req see
system.mem_ctrls.wrQLenPdf::24                     76                       # What write queue length does an incoming req see
system.mem_ctrls.wrQLenPdf::25                     76                       # What write queue length does an incoming req see
system.mem_ctrls.wrQLenPdf::26                     76                       # What write queue length does an incoming req see
system.mem_ctrls.wrQLenPdf::27                     76                       # What write queue length does an incoming req see
system.mem_ctrls.wrQLenPdf::28                     76                       # What write queue length does an incoming req see
system.mem_ctrls.wrQLenPdf::29                     76                       # What write queue length does an incoming req see
system.mem_ctrls.wrQLenPdf::30                     76                       # What write queue length does an incoming req see
system.mem_ctrls.wrQLenPdf::31                     75                       # What write queue length does an incoming req see
system.mem_ctrls.wrQLenPdf::32                     75                       # What write queue length does an incoming req see
system.mem_ctrls.wrQLenPdf::33                      0                       # What write queue length does an incoming req see
system.mem_ctrls.wrQLenPdf::34                      0                       # What write queue length does an incoming req see
system.mem_ctrls.wrQLenPdf::35                      0                       # What write queue length does an incoming req see
system.mem_ctrls.wrQLenPdf::36                      0                       # What write queue length does an incoming req see
system.mem_ctrls.wrQLenPdf::37                      0                       # What write queue length does an incoming req see
system.mem_ctrls.wrQLenPdf::38                      0                       # What write queue length does an incoming req see
system.mem_ctrls.wrQLenPdf::39                      0                       # What write queue length does an incoming req see
system.mem_ctrls.wrQLenPdf::40                      0                       # What write queue length does an incoming req see
system.mem_ctrls.wrQLenPdf::41                      0                       # What write queue length does an incoming req see
system.mem_ctrls.wrQLenPdf::42                      0                       # What write queue length does an incoming req see
system.mem_ctrls.wrQLenPdf::43                      0                       # What write queue length does an incoming req see
system.mem_ctrls.wrQLenPdf::44                      0                       # What write queue length does an incoming req see
system.mem_ctrls.wrQLenPdf::45                      0                       # What write queue length does an incoming req see
system.mem_ctrls.wrQLenPdf::46                      0                       # What write queue length does an incoming req see
system.mem_ctrls.wrQLenPdf::47                      0                       # What write queue length does an incoming req see
system.mem_ctrls.wrQLenPdf::48                      0                       # What write queue length does an incoming req see
system.mem_ctrls.wrQLenPdf::49                      0                       # What write queue length does an incoming req see
system.mem_ctrls.wrQLenPdf::50                      0                       # What write queue length does an incoming req see
system.mem_ctrls.wrQLenPdf::51                      0                       # What write queue length does an incoming req see
system.mem_ctrls.wrQLenPdf::52                      0                       # What write queue length does an incoming req see
system.mem_ctrls.wrQLenPdf::53                      0                       # What write queue length does an incoming req see
system.mem_ctrls.wrQLenPdf::54                      0                       # What write queue length does an incoming req see
system.mem_ctrls.wrQLenPdf::55                      0                       # What write queue length does an incoming req see
system.mem_ctrls.wrQLenPdf::56                      0                       # What write queue length does an incoming req see
system.mem_ctrls.wrQLenPdf::57                      0                       # What write queue length does an incoming req see
system.mem_ctrls.wrQLenPdf::58                      0                       # What write queue length does an incoming req see
system.mem_ctrls.wrQLenPdf::59                      0                       # What write queue length does an incoming req see
system.mem_ctrls.wrQLenPdf::60                      0                       # What write queue length does an incoming req see
system.mem_ctrls.wrQLenPdf::61                      0                       # What write queue length does an incoming req see
system.mem_ctrls.wrQLenPdf::62                      0                       # What write queue length does an incoming req see
system.mem_ctrls.wrQLenPdf::63                      0                       # What write queue length does an incoming req see
system.mem_ctrls.bytesPerActivate::samples        17989                       # Bytes accessed per row activation
system.mem_ctrls.bytesPerActivate::mean    467.065874                       # Bytes accessed per row activation
system.mem_ctrls.bytesPerActivate::gmean   282.950443                       # Bytes accessed per row activation
system.mem_ctrls.bytesPerActivate::stdev   394.861881                       # Bytes accessed per row activation
system.mem_ctrls.bytesPerActivate::0-127         4149     23.06%     23.06% # Bytes accessed per row activation
system.mem_ctrls.bytesPerActivate::128-255         3796     21.10%     44.17% # Bytes accessed per row activation
system.mem_ctrls.bytesPerActivate::256-383         1526      8.48%     52.65% # Bytes accessed per row activation
system.mem_ctrls.bytesPerActivate::384-511         1294      7.19%     59.84% # Bytes accessed per row activation
system.mem_ctrls.bytesPerActivate::512-639          489      2.72%     62.56% # Bytes accessed per row activation
system.mem_ctrls.bytesPerActivate::640-767         1231      6.84%     69.40% # Bytes accessed per row activation
system.mem_ctrls.bytesPerActivate::768-895          325      1.81%     71.21% # Bytes accessed per row activation
system.mem_ctrls.bytesPerActivate::896-1023          290      1.61%     72.82% # Bytes accessed per row activation
system.mem_ctrls.bytesPerActivate::1024-1151         4889     27.18%    100.00% # Bytes accessed per row activation
system.mem_ctrls.bytesPerActivate::total        17989                       # Bytes accessed per row activation
system.mem_ctrls.rdPerTurnAround::samples           75                       # Reads before turning the bus around for writes
system.mem_ctrls.rdPerTurnAround::mean    1686.080000                       # Reads before turning the bus around for writes
system.mem_ctrls.rdPerTurnAround::gmean   1246.470261                       # Reads before turning the bus around for writes
system.mem_ctrls.rdPerTurnAround::stdev   1288.074918                       # Reads before turning the bus around for writes
system.mem_ctrls.rdPerTurnAround::0-255             3      4.00%      4.00% # Reads before turning the bus around for writes
system.mem_ctrls.rdPerTurnAround::256-511            9     12.00%     16.00% # Reads before turning the bus around for writes
system.mem_ctrls.rdPerTurnAround::512-767            8     10.67%     26.67% # Reads before turning the bus around for writes
system.mem_ctrls.rdPerTurnAround::768-1023            8     10.67%     37.33% # Reads before turning the bus around for writes
system.mem_ctrls.rdPerTurnAround::1024-1279            9     12.00%     49.33% # Reads before turning the bus around for writes
system.mem_ctrls.rdPerTurnAround::1280-1535            4      5.33%     54.67% # Reads before turning the bus around for writes
system.mem_ctrls.rdPerTurnAround::1536-1791            6      8.00%     62.67% # Reads before turning the bus around for writes
system.mem_ctrls.rdPerTurnAround::1792-2047            2      2.67%     65.33% # Reads before turning the bus around for writes
system.mem_ctrls.rdPerTurnAround::2048-2303            4      5.33%     70.67% # Reads before turning the bus around for writes
system.mem_ctrls.rdPerTurnAround::2304-2559            6      8.00%     78.67% # Reads before turning the bus around for writes
system.mem_ctrls.rdPerTurnAround::2560-2815            3      4.00%     82.67% # Reads before turning the bus around for writes
system.mem_ctrls.rdPerTurnAround::2816-3071            5      6.67%     89.33% # Reads before turning the bus around for writes
system.mem_ctrls.rdPerTurnAround::3072-3327            1      1.33%     90.67% # Reads before turning the bus around for writes
system.mem_ctrls.rdPerTurnAround::3328-3583            2      2.67%     93.33% # Reads before turning the bus around for writes
system.mem_ctrls.rdPerTurnAround::3840-4095            1      1.33%     94.67% # Reads before turning the bus around for writes
system.mem_ctrls.rdPerTurnAround::4096-4351            1      1.33%     96.00% # Reads before turning the bus around for writes
system.mem_ctrls.rdPerTurnAround::4352-4607            1      1.33%     97.33% # Reads before turning the bus around for writes
system.mem_ctrls.rdPerTurnAround::4864-5119            1      1.33%     98.67% # Reads before turning the bus around for writes
system.mem_ctrls.rdPerTurnAround::6912-7167            1      1.33%    100.00% # Reads before turning the bus around for writes
system.mem_ctrls.rdPerTurnAround::total            75                       # Reads before turning the bus around for writes
system.mem_ctrls.wrPerTurnAround::samples           75                       # Writes before turning the bus around for reads
system.mem_ctrls.wrPerTurnAround::mean      16.240000                       # Writes before turning the bus around for reads
system.mem_ctrls.wrPerTurnAround::gmean     16.227749                       # Writes before turning the bus around for reads
system.mem_ctrls.wrPerTurnAround::stdev      0.654300                       # Writes before turning the bus around for reads
system.mem_ctrls.wrPerTurnAround::16               66     88.00%     88.00% # Writes before turning the bus around for reads
system.mem_ctrls.wrPerTurnAround::18                9     12.00%    100.00% # Writes before turning the bus around for reads
system.mem_ctrls.wrPerTurnAround::total            75                       # Writes before turning the bus around for reads
system.mem_ctrls.totQLat                   1685104250                       # Total ticks spent queuing
system.mem_ctrls.totMemAccLat              4123710500                       # Total ticks spent from burst creation until serviced by the DRAM
system.mem_ctrls.totBusLat                  650295000                       # Total ticks spent in databus transfers
system.mem_ctrls.avgQLat                     12956.46                       # Average queueing delay per DRAM burst
system.mem_ctrls.avgBusLat                    5000.00                       # Average bus latency per DRAM burst
system.mem_ctrls.avgMemAccLat                31706.46                       # Average memory access latency per DRAM burst
system.mem_ctrls.avgRdBW                       545.20                       # Average DRAM read bandwidth in MiByte/s
system.mem_ctrls.avgWrBW                         5.11                       # Average achieved write bandwidth in MiByte/s
system.mem_ctrls.avgRdBWSys                    545.21                       # Average system read bandwidth in MiByte/s
system.mem_ctrls.avgWrBWSys                      5.16                       # Average system write bandwidth in MiByte/s
system.mem_ctrls.peakBW                      12800.00                       # Theoretical peak bandwidth in MiByte/s
system.mem_ctrls.busUtil                         4.30                       # Data bus utilization in percentage
system.mem_ctrls.busUtilRead                     4.26                       # Data bus utilization in percentage for reads
system.mem_ctrls.busUtilWrite                    0.04                       # Data bus utilization in percentage for writes
system.mem_ctrls.avgRdQLen                       1.03                       # Average read queue length when enqueuing
system.mem_ctrls.avgWrQLen                      25.38                       # Average write queue length when enqueuing
system.mem_ctrls.readRowHits                   112454                       # Number of row buffer hits during reads
system.mem_ctrls.writeRowHits                     835                       # Number of row buffer hits during writes
system.mem_ctrls.readRowHitRate                 86.46                       # Row buffer hit rate for reads
system.mem_ctrls.writeRowHitRate                67.78                       # Row buffer hit rate for writes
system.mem_ctrls.avgGap                     116283.19                       # Average gap between requests
system.mem_ctrls.pageHitRate                    86.29                       # Row buffer hit rate, read and write combined
system.mem_ctrls_0.actEnergy                 64074360                       # Energy for activate commands per rank (pJ)
system.mem_ctrls_0.preEnergy                 34060125                       # Energy for precharge commands per rank (pJ)
system.mem_ctrls_0.readEnergy               467727120                       # Energy for read commands per rank (pJ)
system.mem_ctrls_0.writeEnergy                3032820                       # Energy for write commands per rank (pJ)
system.mem_ctrls_0.refreshEnergy         1081151760.000000                       # Energy for refresh commands per rank (pJ)
system.mem_ctrls_0.actBackEnergy           1034169240                       # Energy for active background per rank (pJ)
system.mem_ctrls_0.preBackEnergy             44380800                       # Energy for precharge background per rank (pJ)
system.mem_ctrls_0.actPowerDownEnergy      4371739830                       # Energy for active power-down per rank (pJ)
system.mem_ctrls_0.prePowerDownEnergy       496687680                       # Energy for precharge power-down per rank (pJ)
system.mem_ctrls_0.selfRefreshEnergy        513361860                       # Energy for self refresh per rank (pJ)
system.mem_ctrls_0.totalEnergy             8110461555                       # Total energy per rank (pJ)
system.mem_ctrls_0.averagePower            531.229367                       # Core power per rank (mW)
system.mem_ctrls_0.totalIdleTime          12883810500                       # Total Idle time Per DRAM Rank
system.mem_ctrls_0.memoryStateTime::IDLE     31038000                       # Time in different power states
system.mem_ctrls_0.memoryStateTime::REF     457700000                       # Time in different power states
system.mem_ctrls_0.memoryStateTime::SREF   2003075250                       # Time in different power states
system.mem_ctrls_0.memoryStateTime::PRE_PDN   1293421000                       # Time in different power states
system.mem_ctrls_0.memoryStateTime::ACT    1894774500                       # Time in different power states
system.mem_ctrls_0.memoryStateTime::ACT_PDN   9587335375                       # Time in different power states
system.mem_ctrls_1.actEnergy                 64359960                       # Energy for activate commands per rank (pJ)
system.mem_ctrls_1.preEnergy                 34208130                       # Energy for precharge commands per rank (pJ)
system.mem_ctrls_1.readEnergy               460894140                       # Energy for read commands per rank (pJ)
system.mem_ctrls_1.writeEnergy                3325140                       # Energy for write commands per rank (pJ)
system.mem_ctrls_1.refreshEnergy         1083610320.000000                       # Energy for refresh commands per rank (pJ)
system.mem_ctrls_1.actBackEnergy           1034606430                       # Energy for active background per rank (pJ)
system.mem_ctrls_1.preBackEnergy             47393760                       # Energy for precharge background per rank (pJ)
system.mem_ctrls_1.actPowerDownEnergy      4317133830                       # Energy for active power-down per rank (pJ)
system.mem_ctrls_1.prePowerDownEnergy       501254400                       # Energy for precharge power-down per rank (pJ)
system.mem_ctrls_1.selfRefreshEnergy        547627020                       # Energy for self refresh per rank (pJ)
system.mem_ctrls_1.totalEnergy             8094579300                       # Total energy per rank (pJ)
system.mem_ctrls_1.averagePower            530.189091                       # Core power per rank (mW)
system.mem_ctrls_1.totalIdleTime          12836149000                       # Total Idle time Per DRAM Rank
system.mem_ctrls_1.memoryStateTime::IDLE     35808000                       # Time in different power states
system.mem_ctrls_1.memoryStateTime::REF     458872000                       # Time in different power states
system.mem_ctrls_1.memoryStateTime::SREF   2101934125                       # Time in different power states
system.mem_ctrls_1.memoryStateTime::PRE_PDN   1305380750                       # Time in different power states
system.mem_ctrls_1.memoryStateTime::ACT    1897993250                       # Time in different power states
system.mem_ctrls_1.memoryStateTime::ACT_PDN   9467356000                       # Time in different power states
system.pwrStateResidencyTicks::UNDEFINED  15267344125                       # Cumulative time (in ticks) in various power states
system.cpu0.branchPred.lookups                5454876                       # Number of BP lookups
system.cpu0.branchPred.condPredicted          5454876                       # Number of conditional branches predicted
system.cpu0.branchPred.condIncorrect            92236                       # Number of conditional branches incorrect
system.cpu0.branchPred.BTBLookups             3244475                       # Number of BTB lookups
system.cpu0.branchPred.BTBHits                      0                       # Number of BTB hits
system.cpu0.branchPred.BTBCorrect                   0                       # Number of correct BTB predictions (this stat may not work properly.
system.cpu0.branchPred.BTBHitPct             0.000000                       # BTB Hit Percentage
system.cpu0.branchPred.usedRAS                  54187                       # Number of times the RAS was used to get a target.
system.cpu0.branchPred.RASInCorrect               746                       # Number of incorrect RAS predictions.
system.cpu0.branchPred.indirectLookups        3244475                       # Number of indirect predictor lookups.
system.cpu0.branchPred.indirectHits           2810758                       # Number of indirect target hits.
system.cpu0.branchPred.indirectMisses          433717                       # Number of indirect misses.
system.cpu0.branchPredindirectMispredicted         4954                       # Number of mispredicted indirect branches.
system.cpu_voltage_domain.voltage                   1                       # Voltage in Volts
system.cpu_clk_domain.clock                       500                       # Clock period in ticks
system.cpu0.dtb.walker.pwrStateResidencyTicks::UNDEFINED  15267344125                       # Cumulative time (in ticks) in various power states
system.cpu0.dtb.rdAccesses                    3972000                       # TLB accesses on read requests
system.cpu0.dtb.wrAccesses                     522137                       # TLB accesses on write requests
system.cpu0.dtb.rdMisses                         5098                       # TLB misses on read requests
system.cpu0.dtb.wrMisses                          204                       # TLB misses on write requests
system.cpu0.apic_clk_domain.clock                8000                       # Clock period in ticks
system.cpu0.interrupts.pwrStateResidencyTicks::UNDEFINED  15267344125                       # Cumulative time (in ticks) in various power states
system.cpu0.itb.walker.pwrStateResidencyTicks::UNDEFINED  15267344125                       # Cumulative time (in ticks) in various power states
system.cpu0.itb.rdAccesses                          0                       # TLB accesses on read requests
system.cpu0.itb.wrAccesses                    1189840                       # TLB accesses on write requests
system.cpu0.itb.rdMisses                            0                       # TLB misses on read requests
system.cpu0.itb.wrMisses                           29                       # TLB misses on write requests
system.cpu0.workload.numSyscalls                    0                       # Number of system calls
system.cpu0.pwrStateResidencyTicks::ON    15267344125                       # Cumulative time (in ticks) in various power states
system.cpu0.numCycles                        30534688                       # number of cpu cycles simulated
system.cpu0.numWorkItemsStarted                     0                       # number of work items this cpu started
system.cpu0.numWorkItemsCompleted                   0                       # number of work items this cpu completed
system.cpu0.fetch.icacheStallCycles           1266164                       # Number of cycles fetch is stalled on an Icache miss
system.cpu0.fetch.Insts                      21037108                       # Number of instructions fetch has processed
system.cpu0.fetch.Branches                    5454876                       # Number of branches that fetch encountered
system.cpu0.fetch.predictedBranches           2864945                       # Number of branches that fetch has predicted taken
system.cpu0.fetch.Cycles                     29176052                       # Number of cycles fetch has run and was not squashing or blocked
system.cpu0.fetch.SquashCycles                 184570                       # Number of cycles fetch has spent squashing
system.cpu0.fetch.MiscStallCycles                  13                       # Number of cycles fetch has spent waiting on interrupts, or bad addresses, or out of MSHRs
system.cpu0.fetch.PendingTrapStallCycles          174                       # Number of stall cycles due to pending traps
system.cpu0.fetch.CacheLines                  1189811                       # Number of cache lines fetched
system.cpu0.fetch.IcacheSquashes                 5373                       # Number of outstanding Icache misses that were squashed
system.cpu0.fetch.rateDist::samples          30534688                       # Number of instructions fetched each cycle (Total)
system.cpu0.fetch.rateDist::mean             1.340185                       # Number of instructions fetched each cycle (Total)
system.cpu0.fetch.rateDist::stdev            2.728407                       # Number of instructions fetched each cycle (Total)
system.cpu0.fetch.rateDist::underflows              0      0.00%      0.00% # Number of instructions fetched each cycle (Total)
system.cpu0.fetch.rateDist::0                23892437     78.25%     78.25% # Number of instructions fetched each cycle (Total)
system.cpu0.fetch.rateDist::1                  386343      1.27%     79.51% # Number of instructions fetched each cycle (Total)
system.cpu0.fetch.rateDist::2                  154292      0.51%     80.02% # Number of instructions fetched each cycle (Total)
system.cpu0.fetch.rateDist::3                  207943      0.68%     80.70% # Number of instructions fetched each cycle (Total)
system.cpu0.fetch.rateDist::4                  214211      0.70%     81.40% # Number of instructions fetched each cycle (Total)
system.cpu0.fetch.rateDist::5                 2052985      6.72%     88.12% # Number of instructions fetched each cycle (Total)
system.cpu0.fetch.rateDist::6                  190719      0.62%     88.75% # Number of instructions fetched each cycle (Total)
system.cpu0.fetch.rateDist::7                  148776      0.49%     89.24% # Number of instructions fetched each cycle (Total)
system.cpu0.fetch.rateDist::8                 3286982     10.76%    100.00% # Number of instructions fetched each cycle (Total)
system.cpu0.fetch.rateDist::overflows               0      0.00%    100.00% # Number of instructions fetched each cycle (Total)
system.cpu0.fetch.rateDist::min_value               0                       # Number of instructions fetched each cycle (Total)
system.cpu0.fetch.rateDist::max_value               8                       # Number of instructions fetched each cycle (Total)
system.cpu0.fetch.rateDist::total            30534688                       # Number of instructions fetched each cycle (Total)
system.cpu0.fetch.branchRate                 0.178645                       # Number of branch fetches per cycle
system.cpu0.fetch.rate                       0.688958                       # Number of inst fetches per cycle
system.cpu0.decode.IdleCycles                  862595                       # Number of cycles decode is idle
system.cpu0.decode.BlockedCycles             23773277                       # Number of cycles decode is blocked
system.cpu0.decode.RunCycles                  4924161                       # Number of cycles decode is running
system.cpu0.decode.UnblockCycles               882370                       # Number of cycles decode is unblocking
system.cpu0.decode.SquashCycles                 92285                       # Number of cycles decode is squashing
system.cpu0.decode.DecodedInsts              40062870                       # Number of instructions handled by decode
system.cpu0.rename.SquashCycles                 92285                       # Number of cycles rename is squashing
system.cpu0.rename.IdleCycles                 1170813                       # Number of cycles rename is idle
system.cpu0.rename.BlockCycles               21607556                       # Number of cycles rename is blocking
system.cpu0.rename.serializeStallCycles             0                       # count of cycles rename stalled for serializing inst
system.cpu0.rename.RunCycles                  5447669                       # Number of cycles rename is running
system.cpu0.rename.UnblockCycles              2216365                       # Number of cycles rename is unblocking
system.cpu0.rename.RenamedInsts              39567590                       # Number of instructions processed by rename
system.cpu0.rename.ROBFullEvents                67793                       # Number of times rename has blocked due to ROB full
system.cpu0.rename.IQFullEvents               2074821                       # Number of times rename has blocked due to IQ full
system.cpu0.rename.LQFullEvents                  9612                       # Number of times rename has blocked due to LQ full
system.cpu0.rename.SQFullEvents                 10985                       # Number of times rename has blocked due to SQ full
system.cpu0.rename.RenamedOperands           54258281                       # Number of destination operands rename has renamed
system.cpu0.rename.RenameLookups             98413981                       # Number of register rename lookups that rename has made
system.cpu0.rename.int_rename_lookups        55090980                       # Number of integer rename lookups
system.cpu0.rename.CommittedMaps             44720471                       # Number of HB maps that are committed
system.cpu0.rename.UndoneMaps                 9537810                       # Number of HB maps that are undone due to squashing
system.cpu0.rename.serializingInsts                 0                       # count of serializing insts renamed
system.cpu0.rename.tempSerializingInsts             0                       # count of temporary serializing insts renamed
system.cpu0.rename.skidInsts                  4214918                       # count of insts added to the skid buffer
system.cpu0.memDep0.insertedLoads             4207773                       # Number of loads inserted to the mem dependence unit.
system.cpu0.memDep0.insertedStores             533676                       # Number of stores inserted to the mem dependence unit.
system.cpu0.memDep0.conflictingLoads           108417                       # Number of conflicting loads.
system.cpu0.memDep0.conflictingStores           58709                       # Number of conflicting stores.
system.cpu0.iq.iqInstsAdded                  38554078                       # Number of instructions added to the IQ (excludes non-spec)
system.cpu0.iq.iqInstsIssued                 36532515                       # Number of instructions issued
system.cpu0.iq.iqSquashedInstsIssued           569109                       # Number of squashed instructions issued
system.cpu0.iq.iqSquashedInstsExamined        5663245                       # Number of squashed instructions iterated over during squash; mainly for profiling
system.cpu0.iq.iqSquashedOperandsExamined      7397464                       # Number of squashed operands that are examined and possibly removed from graph
system.cpu0.iq.issued_per_cycle::samples     30534688                       # Number of insts issued each cycle
system.cpu0.iq.issued_per_cycle::mean        1.196427                       # Number of insts issued each cycle
system.cpu0.iq.issued_per_cycle::stdev       2.278360                       # Number of insts issued each cycle
system.cpu0.iq.issued_per_cycle::underflows            0      0.00%      0.00% # Number of insts issued each cycle
system.cpu0.iq.issued_per_cycle::0           22177969     72.63%     72.63% # Number of insts issued each cycle
system.cpu0.iq.issued_per_cycle::1            1288894      4.22%     76.85% # Number of insts issued each cycle
system.cpu0.iq.issued_per_cycle::2            1172133      3.84%     80.69% # Number of insts issued each cycle
system.cpu0.iq.issued_per_cycle::3             957562      3.14%     83.83% # Number of insts issued each cycle
system.cpu0.iq.issued_per_cycle::4             606888      1.99%     85.82% # Number of insts issued each cycle
system.cpu0.iq.issued_per_cycle::5             441117      1.44%     87.26% # Number of insts issued each cycle
system.cpu0.iq.issued_per_cycle::6            1911030      6.26%     93.52% # Number of insts issued each cycle
system.cpu0.iq.issued_per_cycle::7            1905408      6.24%     99.76% # Number of insts issued each cycle
system.cpu0.iq.issued_per_cycle::8              73687      0.24%    100.00% # Number of insts issued each cycle
system.cpu0.iq.issued_per_cycle::overflows            0      0.00%    100.00% # Number of insts issued each cycle
system.cpu0.iq.issued_per_cycle::min_value            0                       # Number of insts issued each cycle
system.cpu0.iq.issued_per_cycle::max_value            8                       # Number of insts issued each cycle
system.cpu0.iq.issued_per_cycle::total       30534688                       # Number of insts issued each cycle
system.cpu0.iq.fu_full::No_OpClass                  0      0.00%      0.00% # attempts to use FU when none available
system.cpu0.iq.fu_full::IntAlu                2989581     99.82%     99.82% # attempts to use FU when none available
system.cpu0.iq.fu_full::IntMult                     0      0.00%     99.82% # attempts to use FU when none available
system.cpu0.iq.fu_full::IntDiv                      0      0.00%     99.82% # attempts to use FU when none available
system.cpu0.iq.fu_full::FloatAdd                    0      0.00%     99.82% # attempts to use FU when none available
system.cpu0.iq.fu_full::FloatCmp                    0      0.00%     99.82% # attempts to use FU when none available
system.cpu0.iq.fu_full::FloatCvt                    0      0.00%     99.82% # attempts to use FU when none available
system.cpu0.iq.fu_full::FloatMult                   0      0.00%     99.82% # attempts to use FU when none available
system.cpu0.iq.fu_full::FloatMultAcc                0      0.00%     99.82% # attempts to use FU when none available
system.cpu0.iq.fu_full::FloatDiv                    0      0.00%     99.82% # attempts to use FU when none available
system.cpu0.iq.fu_full::FloatMisc                   0      0.00%     99.82% # attempts to use FU when none available
system.cpu0.iq.fu_full::FloatSqrt                   0      0.00%     99.82% # attempts to use FU when none available
system.cpu0.iq.fu_full::SimdAdd                     0      0.00%     99.82% # attempts to use FU when none available
system.cpu0.iq.fu_full::SimdAddAcc                  0      0.00%     99.82% # attempts to use FU when none available
system.cpu0.iq.fu_full::SimdAlu                     0      0.00%     99.82% # attempts to use FU when none available
system.cpu0.iq.fu_full::SimdCmp                     0      0.00%     99.82% # attempts to use FU when none available
system.cpu0.iq.fu_full::SimdCvt                     0      0.00%     99.82% # attempts to use FU when none available
system.cpu0.iq.fu_full::SimdMisc                    0      0.00%     99.82% # attempts to use FU when none available
system.cpu0.iq.fu_full::SimdMult                    0      0.00%     99.82% # attempts to use FU when none available
system.cpu0.iq.fu_full::SimdMultAcc                 0      0.00%     99.82% # attempts to use FU when none available
system.cpu0.iq.fu_full::SimdShift                   0      0.00%     99.82% # attempts to use FU when none available
system.cpu0.iq.fu_full::SimdShiftAcc                0      0.00%     99.82% # attempts to use FU when none available
system.cpu0.iq.fu_full::SimdSqrt                    0      0.00%     99.82% # attempts to use FU when none available
system.cpu0.iq.fu_full::SimdFloatAdd                0      0.00%     99.82% # attempts to use FU when none available
system.cpu0.iq.fu_full::SimdFloatAlu                0      0.00%     99.82% # attempts to use FU when none available
system.cpu0.iq.fu_full::SimdFloatCmp                0      0.00%     99.82% # attempts to use FU when none available
system.cpu0.iq.fu_full::SimdFloatCvt                0      0.00%     99.82% # attempts to use FU when none available
system.cpu0.iq.fu_full::SimdFloatDiv                0      0.00%     99.82% # attempts to use FU when none available
system.cpu0.iq.fu_full::SimdFloatMisc               0      0.00%     99.82% # attempts to use FU when none available
system.cpu0.iq.fu_full::SimdFloatMult               0      0.00%     99.82% # attempts to use FU when none available
system.cpu0.iq.fu_full::SimdFloatMultAcc            0      0.00%     99.82% # attempts to use FU when none available
system.cpu0.iq.fu_full::SimdFloatSqrt               0      0.00%     99.82% # attempts to use FU when none available
system.cpu0.iq.fu_full::MemRead                  5220      0.17%    100.00% # attempts to use FU when none available
system.cpu0.iq.fu_full::MemWrite                  128      0.00%    100.00% # attempts to use FU when none available
system.cpu0.iq.fu_full::FloatMemRead                0      0.00%    100.00% # attempts to use FU when none available
system.cpu0.iq.fu_full::FloatMemWrite               0      0.00%    100.00% # attempts to use FU when none available
system.cpu0.iq.fu_full::IprAccess                   0      0.00%    100.00% # attempts to use FU when none available
system.cpu0.iq.fu_full::InstPrefetch                0      0.00%    100.00% # attempts to use FU when none available
system.cpu0.iq.FU_type_0::No_OpClass             4398      0.01%      0.01% # Type of FU issued
system.cpu0.iq.FU_type_0::IntAlu             31821211     87.10%     87.12% # Type of FU issued
system.cpu0.iq.FU_type_0::IntMult              147882      0.40%     87.52% # Type of FU issued
system.cpu0.iq.FU_type_0::IntDiv                    0      0.00%     87.52% # Type of FU issued
system.cpu0.iq.FU_type_0::FloatAdd                  0      0.00%     87.52% # Type of FU issued
system.cpu0.iq.FU_type_0::FloatCmp                  0      0.00%     87.52% # Type of FU issued
system.cpu0.iq.FU_type_0::FloatCvt                  0      0.00%     87.52% # Type of FU issued
system.cpu0.iq.FU_type_0::FloatMult                 0      0.00%     87.52% # Type of FU issued
system.cpu0.iq.FU_type_0::FloatMultAcc              0      0.00%     87.52% # Type of FU issued
system.cpu0.iq.FU_type_0::FloatDiv                  0      0.00%     87.52% # Type of FU issued
system.cpu0.iq.FU_type_0::FloatMisc                 0      0.00%     87.52% # Type of FU issued
system.cpu0.iq.FU_type_0::FloatSqrt                 0      0.00%     87.52% # Type of FU issued
system.cpu0.iq.FU_type_0::SimdAdd                   0      0.00%     87.52% # Type of FU issued
system.cpu0.iq.FU_type_0::SimdAddAcc                0      0.00%     87.52% # Type of FU issued
system.cpu0.iq.FU_type_0::SimdAlu                   0      0.00%     87.52% # Type of FU issued
system.cpu0.iq.FU_type_0::SimdCmp                   0      0.00%     87.52% # Type of FU issued
system.cpu0.iq.FU_type_0::SimdCvt                   0      0.00%     87.52% # Type of FU issued
system.cpu0.iq.FU_type_0::SimdMisc                  0      0.00%     87.52% # Type of FU issued
system.cpu0.iq.FU_type_0::SimdMult                  0      0.00%     87.52% # Type of FU issued
system.cpu0.iq.FU_type_0::SimdMultAcc               0      0.00%     87.52% # Type of FU issued
system.cpu0.iq.FU_type_0::SimdShift                 0      0.00%     87.52% # Type of FU issued
system.cpu0.iq.FU_type_0::SimdShiftAcc              0      0.00%     87.52% # Type of FU issued
system.cpu0.iq.FU_type_0::SimdSqrt                  0      0.00%     87.52% # Type of FU issued
system.cpu0.iq.FU_type_0::SimdFloatAdd              0      0.00%     87.52% # Type of FU issued
system.cpu0.iq.FU_type_0::SimdFloatAlu              0      0.00%     87.52% # Type of FU issued
system.cpu0.iq.FU_type_0::SimdFloatCmp              0      0.00%     87.52% # Type of FU issued
system.cpu0.iq.FU_type_0::SimdFloatCvt              0      0.00%     87.52% # Type of FU issued
system.cpu0.iq.FU_type_0::SimdFloatDiv              0      0.00%     87.52% # Type of FU issued
system.cpu0.iq.FU_type_0::SimdFloatMisc             0      0.00%     87.52% # Type of FU issued
system.cpu0.iq.FU_type_0::SimdFloatMult             0      0.00%     87.52% # Type of FU issued
system.cpu0.iq.FU_type_0::SimdFloatMultAcc            0      0.00%     87.52% # Type of FU issued
system.cpu0.iq.FU_type_0::SimdFloatSqrt             0      0.00%     87.52% # Type of FU issued
system.cpu0.iq.FU_type_0::MemRead             4035245     11.05%     98.57% # Type of FU issued
system.cpu0.iq.FU_type_0::MemWrite             523779      1.43%    100.00% # Type of FU issued
system.cpu0.iq.FU_type_0::FloatMemRead              0      0.00%    100.00% # Type of FU issued
system.cpu0.iq.FU_type_0::FloatMemWrite             0      0.00%    100.00% # Type of FU issued
system.cpu0.iq.FU_type_0::IprAccess                 0      0.00%    100.00% # Type of FU issued
system.cpu0.iq.FU_type_0::InstPrefetch              0      0.00%    100.00% # Type of FU issued
system.cpu0.iq.FU_type_0::total              36532515                       # Type of FU issued
system.cpu0.iq.rate                          1.196427                       # Inst issue rate
system.cpu0.iq.fu_busy_cnt                    2994929                       # FU busy when requested
system.cpu0.iq.fu_busy_rate                  0.081980                       # FU busy rate (busy events/executed inst)
system.cpu0.iq.int_inst_queue_reads         107163756                       # Number of integer instruction queue reads
system.cpu0.iq.int_inst_queue_writes         44217365                       # Number of integer instruction queue writes
system.cpu0.iq.int_inst_queue_wakeup_accesses     36295895                       # Number of integer instruction queue wakeup accesses
system.cpu0.iq.fp_inst_queue_reads                  0                       # Number of floating instruction queue reads
system.cpu0.iq.fp_inst_queue_writes                 0                       # Number of floating instruction queue writes
system.cpu0.iq.fp_inst_queue_wakeup_accesses            0                       # Number of floating instruction queue wakeup accesses
system.cpu0.iq.vec_inst_queue_reads                 0                       # Number of vector instruction queue reads
system.cpu0.iq.vec_inst_queue_writes                0                       # Number of vector instruction queue writes
system.cpu0.iq.vec_inst_queue_wakeup_accesses            0                       # Number of vector instruction queue wakeup accesses
system.cpu0.iq.int_alu_accesses              39523046                       # Number of integer alu accesses
system.cpu0.iq.fp_alu_accesses                      0                       # Number of floating point alu accesses
system.cpu0.iq.vec_alu_accesses                     0                       # Number of vector alu accesses
system.cpu0.iew.lsq.thread0.forwLoads          196454                       # Number of loads that had data forwarded from stores
system.cpu0.iew.lsq.thread0.invAddrLoads            0                       # Number of loads ignored due to an invalid address
system.cpu0.iew.lsq.thread0.squashedLoads       456442                       # Number of loads squashed
system.cpu0.iew.lsq.thread0.ignoredResponses           19                       # Number of memory responses ignored because the instruction is squashed
system.cpu0.iew.lsq.thread0.memOrderViolation           47                       # Number of memory ordering violations
system.cpu0.iew.lsq.thread0.squashedStores        22423                       # Number of stores squashed
system.cpu0.iew.lsq.thread0.invAddrSwpfs            0                       # Number of software prefetches ignored due to an invalid address
system.cpu0.iew.lsq.thread0.blockedLoads            0                       # Number of blocked loads due to partial load-store forwarding
system.cpu0.iew.lsq.thread0.rescheduledLoads            1                       # Number of loads that were rescheduled
system.cpu0.iew.lsq.thread0.cacheBlocked          204                       # Number of times an access to memory failed due to the cache being blocked
system.cpu0.iew.iewIdleCycles                       0                       # Number of cycles IEW is idle
system.cpu0.iew.iewSquashCycles                 92285                       # Number of cycles IEW is squashing
system.cpu0.iew.iewBlockCycles               18740673                       # Number of cycles IEW is blocking
system.cpu0.iew.iewUnblockCycles               100640                       # Number of cycles IEW is unblocking
system.cpu0.iew.iewDispatchedInsts           38554078                       # Number of instructions dispatched to IQ
system.cpu0.iew.iewDispSquashedInsts              604                       # Number of squashed instructions skipped by dispatch
system.cpu0.iew.iewDispLoadInsts              4207773                       # Number of dispatched load instructions
system.cpu0.iew.iewDispStoreInsts              533676                       # Number of dispatched store instructions
system.cpu0.iew.iewDispNonSpecInsts                 0                       # Number of dispatched non-speculative instructions
system.cpu0.iew.iewIQFullEvents                  6113                       # Number of times the IQ has become full, causing a stall
system.cpu0.iew.iewLSQFullEvents                 3839                       # Number of times the LSQ has become full, causing a stall
system.cpu0.iew.memOrderViolationEvents            47                       # Number of memory order violations
system.cpu0.iew.predictedTakenIncorrect         21026                       # Number of branches that were predicted taken incorrectly
system.cpu0.iew.predictedNotTakenIncorrect        80701                       # Number of branches that were predicted not taken incorrectly
system.cpu0.iew.branchMispredicts              101727                       # Number of branch mispredicts detected at execute
system.cpu0.iew.iewExecutedInsts             36395010                       # Number of executed instructions
system.cpu0.iew.iewExecLoadInsts              3971905                       # Number of load instructions executed
system.cpu0.iew.iewExecSquashedInsts           137505                       # Number of squashed instructions skipped in execute
system.cpu0.iew.exec_swp                            0                       # number of swp insts executed
system.cpu0.iew.exec_nop                            0                       # number of nop insts executed
system.cpu0.iew.exec_refs                     4494042                       # number of memory reference insts executed
system.cpu0.iew.exec_branches                 4597719                       # Number of branches executed
system.cpu0.iew.exec_stores                    522137                       # Number of stores executed
system.cpu0.iew.exec_rate                    1.191923                       # Inst execution rate
system.cpu0.iew.wb_sent                      36363877                       # cumulative count of insts sent to commit
system.cpu0.iew.wb_count                     36295895                       # cumulative count of insts written-back
system.cpu0.iew.wb_producers                 29705492                       # num instructions producing a value
system.cpu0.iew.wb_consumers                 46869320                       # num instructions consuming a value
system.cpu0.iew.wb_rate                      1.188677                       # insts written-back per cycle
system.cpu0.iew.wb_fanout                    0.633794                       # average fanout of values written-back
system.cpu0.commit.commitSquashedInsts        5663246                       # The number of squashed insts skipped by commit
system.cpu0.commit.branchMispredicts            92249                       # The number of times a branch was mispredicted
system.cpu0.commit.committed_per_cycle::samples     29784530                       # Number of insts commited each cycle
system.cpu0.commit.committed_per_cycle::mean     1.104292                       # Number of insts commited each cycle
system.cpu0.commit.committed_per_cycle::stdev     2.426932                       # Number of insts commited each cycle
system.cpu0.commit.committed_per_cycle::underflows            0      0.00%      0.00% # Number of insts commited each cycle
system.cpu0.commit.committed_per_cycle::0     22595002     75.86%     75.86% # Number of insts commited each cycle
system.cpu0.commit.committed_per_cycle::1      1911571      6.42%     82.28% # Number of insts commited each cycle
system.cpu0.commit.committed_per_cycle::2       574726      1.93%     84.21% # Number of insts commited each cycle
system.cpu0.commit.committed_per_cycle::3       701026      2.35%     86.56% # Number of insts commited each cycle
system.cpu0.commit.committed_per_cycle::4       297237      1.00%     87.56% # Number of insts commited each cycle
system.cpu0.commit.committed_per_cycle::5       934271      3.14%     90.70% # Number of insts commited each cycle
system.cpu0.commit.committed_per_cycle::6       141166      0.47%     91.17% # Number of insts commited each cycle
system.cpu0.commit.committed_per_cycle::7        16815      0.06%     91.23% # Number of insts commited each cycle
system.cpu0.commit.committed_per_cycle::8      2612716      8.77%    100.00% # Number of insts commited each cycle
system.cpu0.commit.committed_per_cycle::overflows            0      0.00%    100.00% # Number of insts commited each cycle
system.cpu0.commit.committed_per_cycle::min_value            0                       # Number of insts commited each cycle
system.cpu0.commit.committed_per_cycle::max_value            8                       # Number of insts commited each cycle
system.cpu0.commit.committed_per_cycle::total     29784530                       # Number of insts commited each cycle
system.cpu0.commit.committedInsts            17189820                       # Number of instructions committed
system.cpu0.commit.committedOps              32890833                       # Number of ops (including micro ops) committed
system.cpu0.commit.swp_count                        0                       # Number of s/w prefetches committed
system.cpu0.commit.refs                       4262584                       # Number of memory references committed
system.cpu0.commit.loads                      3751331                       # Number of loads committed
system.cpu0.commit.membars                          0                       # Number of memory barriers committed
system.cpu0.commit.branches                   4261076                       # Number of branches committed
system.cpu0.commit.vec_insts                        0                       # Number of committed Vector instructions.
system.cpu0.commit.fp_insts                         0                       # Number of committed floating point instructions.
system.cpu0.commit.int_insts                 32888960                       # Number of committed integer instructions.
system.cpu0.commit.function_calls               48366                       # Number of function calls committed.
system.cpu0.commit.op_class_0::No_OpClass         1873      0.01%      0.01% # Class of committed instruction
system.cpu0.commit.op_class_0::IntAlu        28478494     86.58%     86.59% # Class of committed instruction
system.cpu0.commit.op_class_0::IntMult         147882      0.45%     87.04% # Class of committed instruction
system.cpu0.commit.op_class_0::IntDiv               0      0.00%     87.04% # Class of committed instruction
system.cpu0.commit.op_class_0::FloatAdd             0      0.00%     87.04% # Class of committed instruction
system.cpu0.commit.op_class_0::FloatCmp             0      0.00%     87.04% # Class of committed instruction
system.cpu0.commit.op_class_0::FloatCvt             0      0.00%     87.04% # Class of committed instruction
system.cpu0.commit.op_class_0::FloatMult            0      0.00%     87.04% # Class of committed instruction
system.cpu0.commit.op_class_0::FloatMultAcc            0      0.00%     87.04% # Class of committed instruction
system.cpu0.commit.op_class_0::FloatDiv             0      0.00%     87.04% # Class of committed instruction
system.cpu0.commit.op_class_0::FloatMisc            0      0.00%     87.04% # Class of committed instruction
system.cpu0.commit.op_class_0::FloatSqrt            0      0.00%     87.04% # Class of committed instruction
system.cpu0.commit.op_class_0::SimdAdd              0      0.00%     87.04% # Class of committed instruction
system.cpu0.commit.op_class_0::SimdAddAcc            0      0.00%     87.04% # Class of committed instruction
system.cpu0.commit.op_class_0::SimdAlu              0      0.00%     87.04% # Class of committed instruction
system.cpu0.commit.op_class_0::SimdCmp              0      0.00%     87.04% # Class of committed instruction
system.cpu0.commit.op_class_0::SimdCvt              0      0.00%     87.04% # Class of committed instruction
system.cpu0.commit.op_class_0::SimdMisc             0      0.00%     87.04% # Class of committed instruction
system.cpu0.commit.op_class_0::SimdMult             0      0.00%     87.04% # Class of committed instruction
system.cpu0.commit.op_class_0::SimdMultAcc            0      0.00%     87.04% # Class of committed instruction
system.cpu0.commit.op_class_0::SimdShift            0      0.00%     87.04% # Class of committed instruction
system.cpu0.commit.op_class_0::SimdShiftAcc            0      0.00%     87.04% # Class of committed instruction
system.cpu0.commit.op_class_0::SimdSqrt             0      0.00%     87.04% # Class of committed instruction
system.cpu0.commit.op_class_0::SimdFloatAdd            0      0.00%     87.04% # Class of committed instruction
system.cpu0.commit.op_class_0::SimdFloatAlu            0      0.00%     87.04% # Class of committed instruction
system.cpu0.commit.op_class_0::SimdFloatCmp            0      0.00%     87.04% # Class of committed instruction
system.cpu0.commit.op_class_0::SimdFloatCvt            0      0.00%     87.04% # Class of committed instruction
system.cpu0.commit.op_class_0::SimdFloatDiv            0      0.00%     87.04% # Class of committed instruction
system.cpu0.commit.op_class_0::SimdFloatMisc            0      0.00%     87.04% # Class of committed instruction
system.cpu0.commit.op_class_0::SimdFloatMult            0      0.00%     87.04% # Class of committed instruction
system.cpu0.commit.op_class_0::SimdFloatMultAcc            0      0.00%     87.04% # Class of committed instruction
system.cpu0.commit.op_class_0::SimdFloatSqrt            0      0.00%     87.04% # Class of committed instruction
system.cpu0.commit.op_class_0::MemRead        3751331     11.41%     98.45% # Class of committed instruction
system.cpu0.commit.op_class_0::MemWrite        511253      1.55%    100.00% # Class of committed instruction
system.cpu0.commit.op_class_0::FloatMemRead            0      0.00%    100.00% # Class of committed instruction
system.cpu0.commit.op_class_0::FloatMemWrite            0      0.00%    100.00% # Class of committed instruction
system.cpu0.commit.op_class_0::IprAccess            0      0.00%    100.00% # Class of committed instruction
system.cpu0.commit.op_class_0::InstPrefetch            0      0.00%    100.00% # Class of committed instruction
system.cpu0.commit.op_class_0::total         32890833                       # Class of committed instruction
system.cpu0.commit.bw_lim_events              2612716                       # number cycles where commit BW limit reached
system.cpu0.rob.rob_reads                    65725893                       # The number of ROB reads
system.cpu0.rob.rob_writes                   77862397                       # The number of ROB writes
system.cpu0.committedInsts                   17189820                       # Number of Instructions Simulated
system.cpu0.committedOps                     32890833                       # Number of Ops (including micro ops) Simulated
system.cpu0.cpi                              1.776324                       # CPI: Cycles Per Instruction
system.cpu0.cpi_total                        1.776324                       # CPI: Total CPI of All Threads
system.cpu0.ipc                              0.562960                       # IPC: Instructions Per Cycle
system.cpu0.ipc_total                        0.562960                       # IPC: Total IPC of All Threads
system.cpu0.int_regfile_reads                50206639                       # number of integer regfile reads
system.cpu0.int_regfile_writes               31386531                       # number of integer regfile writes
system.cpu0.cc_regfile_reads                 24769221                       # number of cc regfile reads
system.cpu0.cc_regfile_writes                18329078                       # number of cc regfile writes
system.cpu0.misc_regfile_reads               13939718                       # number of misc regfile reads
system.cpu0.dcache.tags.pwrStateResidencyTicks::UNDEFINED  15267344125                       # Cumulative time (in ticks) in various power states
system.cpu0.dcache.tags.replacements           145561                       # number of replacements
system.cpu0.dcache.tags.tagsinuse                1024                       # Cycle average of tags in use
system.cpu0.dcache.tags.total_refs            3651476                       # Total number of references to valid blocks.
system.cpu0.dcache.tags.sampled_refs           145561                       # Sample count of references to valid blocks.
system.cpu0.dcache.tags.avg_refs            25.085538                       # Average number of references to valid blocks.
system.cpu0.dcache.tags.warmup_cycle                0                       # Cycle when the warmup percentage was hit.
system.cpu0.dcache.tags.occ_blocks::cpu0.data         1024                       # Average occupied blocks per requestor
system.cpu0.dcache.tags.occ_percent::cpu0.data            1                       # Average percentage of cache occupancy
system.cpu0.dcache.tags.occ_percent::total            1                       # Average percentage of cache occupancy
system.cpu0.dcache.tags.occ_task_id_blocks::1024         1024                       # Occupied blocks per task id
system.cpu0.dcache.tags.age_task_id_blocks_1024::0           94                       # Occupied blocks per task id
system.cpu0.dcache.tags.age_task_id_blocks_1024::1          841                       # Occupied blocks per task id
system.cpu0.dcache.tags.age_task_id_blocks_1024::2           79                       # Occupied blocks per task id
system.cpu0.dcache.tags.age_task_id_blocks_1024::3            8                       # Occupied blocks per task id
system.cpu0.dcache.tags.age_task_id_blocks_1024::4            2                       # Occupied blocks per task id
system.cpu0.dcache.tags.occ_task_id_percent::1024            1                       # Percentage of cache occupancy per task id
system.cpu0.dcache.tags.tag_accesses         17287273                       # Number of tag accesses
system.cpu0.dcache.tags.data_accesses        17287273                       # Number of data accesses
system.cpu0.dcache.pwrStateResidencyTicks::UNDEFINED  15267344125                       # Cumulative time (in ticks) in various power states
system.cpu0.dcache.ReadReq_hits::cpu0.data      3439219                       # number of ReadReq hits
system.cpu0.dcache.ReadReq_hits::total        3439219                       # number of ReadReq hits
system.cpu0.dcache.WriteReq_hits::cpu0.data       510088                       # number of WriteReq hits
system.cpu0.dcache.WriteReq_hits::total        510088                       # number of WriteReq hits
system.cpu0.dcache.demand_hits::cpu0.data      3949307                       # number of demand (read+write) hits
system.cpu0.dcache.demand_hits::total         3949307                       # number of demand (read+write) hits
system.cpu0.dcache.overall_hits::cpu0.data      3949307                       # number of overall hits
system.cpu0.dcache.overall_hits::total        3949307                       # number of overall hits
system.cpu0.dcache.ReadReq_misses::cpu0.data       334956                       # number of ReadReq misses
system.cpu0.dcache.ReadReq_misses::total       334956                       # number of ReadReq misses
system.cpu0.dcache.WriteReq_misses::cpu0.data         1165                       # number of WriteReq misses
system.cpu0.dcache.WriteReq_misses::total         1165                       # number of WriteReq misses
system.cpu0.dcache.demand_misses::cpu0.data       336121                       # number of demand (read+write) misses
system.cpu0.dcache.demand_misses::total        336121                       # number of demand (read+write) misses
system.cpu0.dcache.overall_misses::cpu0.data       336121                       # number of overall misses
system.cpu0.dcache.overall_misses::total       336121                       # number of overall misses
system.cpu0.dcache.ReadReq_miss_latency::cpu0.data  23578902000                       # number of ReadReq miss cycles
system.cpu0.dcache.ReadReq_miss_latency::total  23578902000                       # number of ReadReq miss cycles
system.cpu0.dcache.WriteReq_miss_latency::cpu0.data    105567500                       # number of WriteReq miss cycles
system.cpu0.dcache.WriteReq_miss_latency::total    105567500                       # number of WriteReq miss cycles
system.cpu0.dcache.demand_miss_latency::cpu0.data  23684469500                       # number of demand (read+write) miss cycles
system.cpu0.dcache.demand_miss_latency::total  23684469500                       # number of demand (read+write) miss cycles
system.cpu0.dcache.overall_miss_latency::cpu0.data  23684469500                       # number of overall miss cycles
system.cpu0.dcache.overall_miss_latency::total  23684469500                       # number of overall miss cycles
system.cpu0.dcache.ReadReq_accesses::cpu0.data      3774175                       # number of ReadReq accesses(hits+misses)
system.cpu0.dcache.ReadReq_accesses::total      3774175                       # number of ReadReq accesses(hits+misses)
system.cpu0.dcache.WriteReq_accesses::cpu0.data       511253                       # number of WriteReq accesses(hits+misses)
system.cpu0.dcache.WriteReq_accesses::total       511253                       # number of WriteReq accesses(hits+misses)
system.cpu0.dcache.demand_accesses::cpu0.data      4285428                       # number of demand (read+write) accesses
system.cpu0.dcache.demand_accesses::total      4285428                       # number of demand (read+write) accesses
system.cpu0.dcache.overall_accesses::cpu0.data      4285428                       # number of overall (read+write) accesses
system.cpu0.dcache.overall_accesses::total      4285428                       # number of overall (read+write) accesses
system.cpu0.dcache.ReadReq_miss_rate::cpu0.data     0.088749                       # miss rate for ReadReq accesses
system.cpu0.dcache.ReadReq_miss_rate::total     0.088749                       # miss rate for ReadReq accesses
system.cpu0.dcache.WriteReq_miss_rate::cpu0.data     0.002279                       # miss rate for WriteReq accesses
system.cpu0.dcache.WriteReq_miss_rate::total     0.002279                       # miss rate for WriteReq accesses
system.cpu0.dcache.demand_miss_rate::cpu0.data     0.078433                       # miss rate for demand accesses
system.cpu0.dcache.demand_miss_rate::total     0.078433                       # miss rate for demand accesses
system.cpu0.dcache.overall_miss_rate::cpu0.data     0.078433                       # miss rate for overall accesses
system.cpu0.dcache.overall_miss_rate::total     0.078433                       # miss rate for overall accesses
system.cpu0.dcache.ReadReq_avg_miss_latency::cpu0.data 70394.027872                       # average ReadReq miss latency
system.cpu0.dcache.ReadReq_avg_miss_latency::total 70394.027872                       # average ReadReq miss latency
system.cpu0.dcache.WriteReq_avg_miss_latency::cpu0.data 90615.879828                       # average WriteReq miss latency
system.cpu0.dcache.WriteReq_avg_miss_latency::total 90615.879828                       # average WriteReq miss latency
system.cpu0.dcache.demand_avg_miss_latency::cpu0.data 70464.117089                       # average overall miss latency
[...]
system.l2.ReadSharedReq_hits::cpu0.data         15328                       # number of ReadSharedReq hits
system.l2.ReadSharedReq_hits::total             15328                       # number of ReadSharedReq hits
system.l2.demand_hits::cpu0.data                15499                       # number of demand (read+write) hits
system.l2.demand_hits::total                    15499                       # number of demand (read+write) hits
system.l2.overall_hits::cpu0.data               15499                       # number of overall hits
system.l2.overall_hits::total                   15499                       # number of overall hits
system.l2.ReadExReq_misses::cpu0.data             994                       # number of ReadExReq misses
system.l2.ReadExReq_misses::total                 994                       # number of ReadExReq misses
system.l2.ReadSharedReq_misses::cpu0.data       129068                       # number of ReadSharedReq misses
system.l2.ReadSharedReq_misses::total          129068                       # number of ReadSharedReq misses
system.l2.demand_misses::cpu0.data             130062                       # number of demand (read+write) misses
system.l2.demand_misses::total                 130062                       # number of demand (read+write) misses
system.l2.overall_misses::cpu0.data            130062                       # number of overall misses
system.l2.overall_misses::total                130062                       # number of overall misses
system.l2.ReadExReq_miss_latency::cpu0.data    100826500                       # number of ReadExReq miss cycles
system.l2.ReadExReq_miss_latency::total     100826500                       # number of ReadExReq miss cycles
system.l2.ReadSharedReq_miss_latency::cpu0.data  10654673000                       # number of ReadSharedReq miss cycles
system.l2.ReadSharedReq_miss_latency::total  10654673000                       # number of ReadSharedReq miss cycles
system.l2.demand_miss_latency::cpu0.data  10755499500                       # number of demand (read+write) miss cycles
system.l2.demand_miss_latency::total      10755499500                       # number of demand (read+write) miss cycles
system.l2.overall_miss_latency::cpu0.data  10755499500                       # number of overall miss cycles
system.l2.overall_miss_latency::total     10755499500                       # number of overall miss cycles
system.l2.WritebackDirty_accesses::writebacks         1463                       # number of WritebackDirty accesses(hits+misses)
system.l2.WritebackDirty_accesses::total         1463                       # number of WritebackDirty accesses(hits+misses)
system.l2.ReadExReq_accesses::cpu0.data          1165                       # number of ReadExReq accesses(hits+misses)
system.l2.ReadExReq_accesses::total              1165                       # number of ReadExReq accesses(hits+misses)
system.l2.ReadSharedReq_accesses::cpu0.data       144396                       # number of ReadSharedReq accesses(hits+misses)
system.l2.ReadSharedReq_accesses::total        144396                       # number of ReadSharedReq accesses(hits+misses)
system.l2.demand_accesses::cpu0.data           145561                       # number of demand (read+write) accesses
system.l2.demand_accesses::total               145561                       # number of demand (read+write) accesses
system.l2.overall_accesses::cpu0.data          145561                       # number of overall (read+write) accesses
system.l2.overall_accesses::total              145561                       # number of overall (read+write) accesses
system.l2.ReadExReq_miss_rate::cpu0.data     0.853219                       # miss rate for ReadExReq accesses
system.l2.ReadExReq_miss_rate::total         0.853219                       # miss rate for ReadExReq accesses
system.l2.ReadSharedReq_miss_rate::cpu0.data     0.893847                       # miss rate for ReadSharedReq accesses
system.l2.ReadSharedReq_miss_rate::total     0.893847                       # miss rate for ReadSharedReq accesses
system.l2.demand_miss_rate::cpu0.data        0.893522                       # miss rate for demand accesses
system.l2.demand_miss_rate::total            0.893522                       # miss rate for demand accesses
system.l2.overall_miss_rate::cpu0.data       0.893522                       # miss rate for overall accesses
system.l2.overall_miss_rate::total           0.893522                       # miss rate for overall accesses
system.l2.ReadExReq_avg_miss_latency::cpu0.data 101435.110664                       # average ReadExReq miss latency
system.l2.ReadExReq_avg_miss_latency::total 101435.110664                       # average ReadExReq miss latency
system.l2.ReadSharedReq_avg_miss_latency::cpu0.data 82550.849165                       # average ReadSharedReq miss latency
system.l2.ReadSharedReq_avg_miss_latency::total 82550.849165                       # average ReadSharedReq miss latency
system.l2.demand_avg_miss_latency::cpu0.data 82695.172302                       # average overall miss latency
system.l2.demand_avg_miss_latency::total 82695.172302                       # average overall miss latency
system.l2.overall_avg_miss_latency::cpu0.data 82695.172302                       # average overall miss latency
system.l2.overall_avg_miss_latency::total 82695.172302                       # average overall miss latency
system.l2.blocked_cycles::no_mshrs                  0                       # number of cycles access was blocked
system.l2.blocked_cycles::no_targets                0                       # number of cycles access was blocked
system.l2.blocked::no_mshrs                         0                       # number of cycles access was blocked
system.l2.blocked::no_targets                       0                       # number of cycles access was blocked
system.l2.avg_blocked_cycles::no_mshrs            nan                       # average number of cycles each access was blocked
system.l2.avg_blocked_cycles::no_targets          nan                       # average number of cycles each access was blocked
system.l2.writebacks::writebacks                 1232                       # number of writebacks
system.l2.writebacks::total                      1232                       # number of writebacks
system.l2.ReadExReq_mshr_misses::cpu0.data          994                       # number of ReadExReq MSHR misses
system.l2.ReadExReq_mshr_misses::total            994                       # number of ReadExReq MSHR misses
system.l2.ReadSharedReq_mshr_misses::cpu0.data       129068                       # number of ReadSharedReq MSHR misses
system.l2.ReadSharedReq_mshr_misses::total       129068                       # number of ReadSharedReq MSHR misses
system.l2.demand_mshr_misses::cpu0.data        130062                       # number of demand (read+write) MSHR misses
system.l2.demand_mshr_misses::total            130062                       # number of demand (read+write) MSHR misses
system.l2.overall_mshr_misses::cpu0.data       130062                       # number of overall MSHR misses
system.l2.overall_mshr_misses::total           130062                       # number of overall MSHR misses
system.l2.ReadExReq_mshr_miss_latency::cpu0.data     90886500                       # number of ReadExReq MSHR miss cycles
system.l2.ReadExReq_mshr_miss_latency::total     90886500                       # number of ReadExReq MSHR miss cycles
system.l2.ReadSharedReq_mshr_miss_latency::cpu0.data   9363993000                       # number of ReadSharedReq MSHR miss cycles
system.l2.ReadSharedReq_mshr_miss_latency::total   9363993000                       # number of ReadSharedReq MSHR miss cycles
system.l2.demand_mshr_miss_latency::cpu0.data   9454879500                       # number of demand (read+write) MSHR miss cycles
system.l2.demand_mshr_miss_latency::total   9454879500                       # number of demand (read+write) MSHR miss cycles
system.l2.overall_mshr_miss_latency::cpu0.data   9454879500                       # number of overall MSHR miss cycles
system.l2.overall_mshr_miss_latency::total   9454879500                       # number of overall MSHR miss cycles
system.l2.ReadExReq_mshr_miss_rate::cpu0.data     0.853219                       # mshr miss rate for ReadExReq accesses
system.l2.ReadExReq_mshr_miss_rate::total     0.853219                       # mshr miss rate for ReadExReq accesses
system.l2.ReadSharedReq_mshr_miss_rate::cpu0.data     0.893847                       # mshr miss rate for ReadSharedReq accesses
system.l2.ReadSharedReq_mshr_miss_rate::total     0.893847                       # mshr miss rate for ReadSharedReq accesses
system.l2.demand_mshr_miss_rate::cpu0.data     0.893522                       # mshr miss rate for demand accesses
system.l2.demand_mshr_miss_rate::total       0.893522                       # mshr miss rate for demand accesses
system.l2.overall_mshr_miss_rate::cpu0.data     0.893522                       # mshr miss rate for overall accesses
system.l2.overall_mshr_miss_rate::total      0.893522                       # mshr miss rate for overall accesses
system.l2.ReadExReq_avg_mshr_miss_latency::cpu0.data 91435.110664                       # average ReadExReq mshr miss latency
system.l2.ReadExReq_avg_mshr_miss_latency::total 91435.110664                       # average ReadExReq mshr miss latency
system.l2.ReadSharedReq_avg_mshr_miss_latency::cpu0.data 72550.849165                       # average ReadSharedReq mshr miss latency
system.l2.ReadSharedReq_avg_mshr_miss_latency::total 72550.849165                       # average ReadSharedReq mshr miss latency
system.l2.demand_avg_mshr_miss_latency::cpu0.data 72695.172302                       # average overall mshr miss latency
system.l2.demand_avg_mshr_miss_latency::total 72695.172302                       # average overall mshr miss latency
system.l2.overall_avg_mshr_miss_latency::cpu0.data 72695.172302                       # average overall mshr miss latency
system.l2.overall_avg_mshr_miss_latency::total 72695.172302                       # average overall mshr miss latency
system.membus.snoop_filter.tot_requests        260124                       # Total number of requests made to the snoop filter.
system.membus.snoop_filter.hit_single_requests       130062                       # Number of requests hitting in the snoop filter with a single holder of the requested data.
system.membus.snoop_filter.hit_multi_requests            0                       # Number of requests hitting in the snoop filter with multiple (>1) holders of the requested data.
system.membus.snoop_filter.tot_snoops               0                       # Total number of snoops made to the snoop filter.
system.membus.snoop_filter.hit_single_snoops            0                       # Number of snoops hitting in the snoop filter with a single holder of the requested data.
system.membus.snoop_filter.hit_multi_snoops            0                       # Number of snoops hitting in the snoop filter with multiple (>1) holders of the requested data.
system.membus.pwrStateResidencyTicks::UNDEFINED  15267344125                       # Cumulative time (in ticks) in various power states
system.membus.trans_dist::ReadResp             129068                       # Transaction distribution
system.membus.trans_dist::WritebackDirty         1232                       # Transaction distribution
system.membus.trans_dist::CleanEvict           128830                       # Transaction distribution
system.membus.trans_dist::ReadExReq               994                       # Transaction distribution
system.membus.trans_dist::ReadExResp              994                       # Transaction distribution
system.membus.trans_dist::ReadSharedReq        129068                       # Transaction distribution
system.membus.pkt_count_system.l2.mem_side::system.mem_ctrls.port       390186                       # Packet count per connected master and slave (bytes)
system.membus.pkt_count_system.l2.mem_side::total       390186                       # Packet count per connected master and slave (bytes)
system.membus.pkt_count::total                 390186                       # Packet count per connected master and slave (bytes)
system.membus.pkt_size_system.l2.mem_side::system.mem_ctrls.port      8402816                       # Cumulative packet size per connected master and slave (bytes)
system.membus.pkt_size_system.l2.mem_side::total      8402816                       # Cumulative packet size per connected master and slave (bytes)
system.membus.pkt_size::total                 8402816                       # Cumulative packet size per connected master and slave (bytes)
system.membus.snoops                                0                       # Total snoops (count)
system.membus.snoopTraffic                          0                       # Total snoop traffic (bytes)
system.membus.snoop_fanout::samples            130062                       # Request fanout histogram
system.membus.snoop_fanout::mean                    0                       # Request fanout histogram
system.membus.snoop_fanout::stdev                   0                       # Request fanout histogram
system.membus.snoop_fanout::underflows              0      0.00%      0.00% # Request fanout histogram
system.membus.snoop_fanout::0                  130062    100.00%    100.00% # Request fanout histogram
system.membus.snoop_fanout::1                       0      0.00%    100.00% # Request fanout histogram
system.membus.snoop_fanout::overflows               0      0.00%    100.00% # Request fanout histogram
system.membus.snoop_fanout::min_value               0                       # Request fanout histogram
system.membus.snoop_fanout::max_value               0                       # Request fanout histogram
system.membus.snoop_fanout::total              130062                       # Request fanout histogram
system.membus.reqLayer8.occupancy           289739000                       # Layer occupancy (ticks)
system.membus.reqLayer8.utilization               1.9                       # Layer utilization (%)
system.membus.respLayer1.occupancy          687804000                       # Layer occupancy (ticks)
system.membus.respLayer1.utilization              4.5                       # Layer utilization (%)
system.tol2bus.snoop_filter.tot_requests       291122                       # Total number of requests made to the snoop filter.
system.tol2bus.snoop_filter.hit_single_requests       145561                       # Number of requests hitting in the snoop filter with a single holder of the requested data.
system.tol2bus.snoop_filter.hit_multi_requests           13                       # Number of requests hitting in the snoop filter with multiple (>1) holders of the requested data.
system.tol2bus.snoop_filter.tot_snoops              8                       # Total number of snoops made to the snoop filter.
system.tol2bus.snoop_filter.hit_single_snoops            5                       # Number of snoops hitting in the snoop filter with a single holder of the requested data.
system.tol2bus.snoop_filter.hit_multi_snoops            3                       # Number of snoops hitting in the snoop filter with multiple (>1) holders of the requested data.
system.tol2bus.pwrStateResidencyTicks::UNDEFINED  15267344125                       # Cumulative time (in ticks) in various power states
system.tol2bus.trans_dist::ReadResp            144396                       # Transaction distribution
system.tol2bus.trans_dist::WritebackDirty         2695                       # Transaction distribution
system.tol2bus.trans_dist::CleanEvict          272936                       # Transaction distribution
system.tol2bus.trans_dist::ReadExReq             1165                       # Transaction distribution
system.tol2bus.trans_dist::ReadExResp            1165                       # Transaction distribution
system.tol2bus.trans_dist::ReadSharedReq       144396                       # Transaction distribution
system.tol2bus.pkt_count_system.cpu0.dcache.mem_side::system.l2.cpu_side       436683                       # Packet count per connected master and slave (bytes)
system.tol2bus.pkt_count::total                436683                       # Packet count per connected master and slave (bytes)
system.tol2bus.pkt_size_system.cpu0.dcache.mem_side::system.l2.cpu_side      9409536                       # Cumulative packet size per connected master and slave (bytes)
system.tol2bus.pkt_size::total                9409536                       # Cumulative packet size per connected master and slave (bytes)
system.tol2bus.snoops                          130070                       # Total snoops (count)
system.tol2bus.snoopTraffic                     78848                       # Total snoop traffic (bytes)
system.tol2bus.snoop_fanout::samples           275631                       # Request fanout histogram
system.tol2bus.snoop_fanout::mean            0.000087                       # Request fanout histogram
system.tol2bus.snoop_fanout::stdev           0.010432                       # Request fanout histogram
system.tol2bus.snoop_fanout::underflows             0      0.00%      0.00% # Request fanout histogram
system.tol2bus.snoop_fanout::0                 275610     99.99%     99.99% # Request fanout histogram
system.tol2bus.snoop_fanout::1                     18      0.01%    100.00% # Request fanout histogram
system.tol2bus.snoop_fanout::2                      3      0.00%    100.00% # Request fanout histogram
system.tol2bus.snoop_fanout::3                      0      0.00%    100.00% # Request fanout histogram
system.tol2bus.snoop_fanout::4                      0      0.00%    100.00% # Request fanout histogram
system.tol2bus.snoop_fanout::5                      0      0.00%    100.00% # Request fanout histogram
system.tol2bus.snoop_fanout::6                      0      0.00%    100.00% # Request fanout histogram
system.tol2bus.snoop_fanout::7                      0      0.00%    100.00% # Request fanout histogram
system.tol2bus.snoop_fanout::8                      0      0.00%    100.00% # Request fanout histogram
system.tol2bus.snoop_fanout::9                      0      0.00%    100.00% # Request fanout histogram
system.tol2bus.snoop_fanout::10                     0      0.00%    100.00% # Request fanout histogram
system.tol2bus.snoop_fanout::11                     0      0.00%    100.00% # Request fanout histogram
system.tol2bus.snoop_fanout::12                     0      0.00%    100.00% # Request fanout histogram
system.tol2bus.snoop_fanout::13                     0      0.00%    100.00% # Request fanout histogram
system.tol2bus.snoop_fanout::14                     0      0.00%    100.00% # Request fanout histogram
system.tol2bus.snoop_fanout::15                     0      0.00%    100.00% # Request fanout histogram
system.tol2bus.snoop_fanout::16                     0      0.00%    100.00% # Request fanout histogram
system.tol2bus.snoop_fanout::overflows              0      0.00%    100.00% # Request fanout histogram
system.tol2bus.snoop_fanout::min_value              0                       # Request fanout histogram
system.tol2bus.snoop_fanout::max_value              2                       # Request fanout histogram
system.tol2bus.snoop_fanout::total             275631                       # Request fanout histogram
system.tol2bus.reqLayer0.occupancy          147024000                       # Layer occupancy (ticks)
system.tol2bus.reqLayer0.utilization              1.0                       # Layer utilization (%)
system.tol2bus.respLayer1.occupancy         218341500                       # Layer occupancy (ticks)
system.tol2bus.respLayer1.utilization             1.4                       # Layer utilization (%)

---------- End Simulation Statistics   ----------
