
---------- Begin Simulation Statistics ----------
sim_seconds                                  0.015267                       # Number of seconds simulated
sim_ticks                                 15267344125                       # Number of ticks simulated
final_tick                               7679474094875                       # Number of ticks from beginning of simulation (restored from checkpoints and never reset)
sim_freq                                 1000000000000                       # Frequency of simulated ticks
host_inst_rate                              115360961                       # Simulator instruction rate (inst/s)
host_op_rate                                215113936                       # Simulator op (including micro ops) rate (op/s)
host_tick_rate                              290133635                       # Simulator tick rate (ticks/s)
host_mem_usage                                2332528                       # Number of bytes of host memory used
host_seconds                                    52.62                       # Real time elapsed on the host
sim_insts                                  6070493770                       # Number of instructions simulated
sim_ops                                   11319671882                       # Number of ops (including micro ops) simulated
system.voltage_domain.voltage                       1                       # Voltage in Volts
system.clk_domain.clock                          1000                       # Clock period in ticks
system.mem_ctrls.pwrStateResidencyTicks::UNDEFINED  15267344125                       # Cumulative time (in ticks) in various power states
system.mem_ctrls.bytes_read::cpu0.data       12125184                       # Number of bytes read from this memory
system.mem_ctrls.bytes_read::total           12125184                       # Number of bytes read from this memory
system.mem_ctrls.bytes_written::writebacks        18688                       # Number of bytes written to this memory
system.mem_ctrls.bytes_written::total           18688                       # Number of bytes written to this memory
system.mem_ctrls.num_reads::cpu0.data          189456                       # Number of read requests responded to by this memory
system.mem_ctrls.num_reads::total              189456                       # Number of read requests responded to by this memory
system.mem_ctrls.num_writes::writebacks           292                       # Number of write requests responded to by this memory
system.mem_ctrls.num_writes::total                292                       # Number of write requests responded to by this memory
system.mem_ctrls.bw_read::cpu0.data         794190784                       # Total read bandwidth from this memory (bytes/s)
system.mem_ctrls.bw_read::total             794190784                       # Total read bandwidth from this memory (bytes/s)
system.mem_ctrls.bw_write::writebacks         1224050                       # Write bandwidth from this memory (bytes/s)
system.mem_ctrls.bw_write::total              1224050                       # Write bandwidth from this memory (bytes/s)
system.mem_ctrls.bw_total::writebacks         1224050                       # Total bandwidth to/from this memory (bytes/s)
system.mem_ctrls.bw_total::cpu0.data        794190784                       # Total bandwidth to/from this memory (bytes/s)
system.mem_ctrls.bw_total::total            795414834                       # Total bandwidth to/from this memory (bytes/s)
system.mem_ctrls.readReqs                      189456                       # Number of read requests accepted
system.mem_ctrls.writeReqs                        292                       # Number of write requests accepted
system.mem_ctrls.readBursts                    189456                       # Number of DRAM read bursts, including those serviced by the write queue
system.mem_ctrls.writeBursts                      292                       # Number of DRAM write bursts, including those merged in the write queue
system.mem_ctrls.bytesReadDRAM               12122880                       # Total number of bytes read from DRAM
system.mem_ctrls.bytesReadWrQ                    2304                       # Total number of bytes read from write queue
system.mem_ctrls.bytesWritten                   18432                       # Total number of bytes written to DRAM
system.mem_ctrls.bytesReadSys                12125184                       # Total read bytes from the system interface side
system.mem_ctrls.bytesWrittenSys                18688                       # Total written bytes from the system interface side
system.mem_ctrls.servicedByWrQ                     36                       # Number of DRAM read bursts serviced by the write queue
system.mem_ctrls.mergedWrBursts                     0                       # Number of DRAM write bursts merged with an existing one
system.mem_ctrls.neitherReadNorWriteReqs            0                       # Number of requests that are neither read nor write
system.mem_ctrls.perBankRdBursts::0             11689                       # Per bank write bursts
system.mem_ctrls.perBankRdBursts::1             11593                       # Per bank write bursts
system.mem_ctrls.perBankRdBursts::2             11669                       # Per bank write bursts
system.mem_ctrls.perBankRdBursts::3             12034                       # Per bank write bursts
system.mem_ctrls.perBankRdBursts::4             12190                       # Per bank write bursts
system.mem_ctrls.perBankRdBursts::5             12366                       # Per bank write bursts
system.mem_ctrls.perBankRdBursts::6             12251                       # Per bank write bursts
system.mem_ctrls.perBankRdBursts::7             11866                       # Per bank write bursts
system.mem_ctrls.perBankRdBursts::8             11606                       # Per bank write bursts
system.mem_ctrls.perBankRdBursts::9             11599                       # Per bank write bursts
system.mem_ctrls.perBankRdBursts::10            11893                       # Per bank write bursts
system.mem_ctrls.perBankRdBursts::11            11743                       # Per bank write bursts
system.mem_ctrls.perBankRdBursts::12            11799                       # Per bank write bursts
system.mem_ctrls.perBankRdBursts::13            11563                       # Per bank write bursts
system.mem_ctrls.perBankRdBursts::14            11778                       # Per bank write bursts
system.mem_ctrls.perBankRdBursts::15            11781                       # Per bank write bursts
system.mem_ctrls.perBankWrBursts::0                 0                       # Per bank write bursts
system.mem_ctrls.perBankWrBursts::1                 0                       # Per bank write bursts
system.mem_ctrls.perBankWrBursts::2                 0                       # Per bank write bursts
system.mem_ctrls.perBankWrBursts::3                75                       # Per bank write bursts
system.mem_ctrls.perBankWrBursts::4                 8                       # Per bank write bursts
system.mem_ctrls.perBankWrBursts::5                 8                       # Per bank write bursts
system.mem_ctrls.perBankWrBursts::6               112                       # Per bank write bursts
system.mem_ctrls.perBankWrBursts::7                62                       # Per bank write bursts
system.mem_ctrls.perBankWrBursts::8                 0                       # Per bank write bursts
system.mem_ctrls.perBankWrBursts::9                 0                       # Per bank write bursts
system.mem_ctrls.perBankWrBursts::10               16                       # Per bank write bursts
system.mem_ctrls.perBankWrBursts::11                0                       # Per bank write bursts
system.mem_ctrls.perBankWrBursts::12                0                       # Per bank write bursts
system.mem_ctrls.perBankWrBursts::13                1                       # Per bank write bursts
system.mem_ctrls.perBankWrBursts::14                6                       # Per bank write bursts
system.mem_ctrls.perBankWrBursts::15                0                       # Per bank write bursts
system.mem_ctrls.numRdRetry                         0                       # Number of times read queue was full causing retry
system.mem_ctrls.numWrRetry                         0                       # Number of times write queue was full causing retry
system.mem_ctrls.totGap                   15267352500                       # Total gap between requests
system.mem_ctrls.readPktSize::0                     0                       # Read request sizes (log2)
system.mem_ctrls.readPktSize::1                     0                       # Read request sizes (log2)
system.mem_ctrls.readPktSize::2                     0                       # Read request sizes (log2)
system.mem_ctrls.readPktSize::3                     0                       # Read request sizes (log2)
system.mem_ctrls.readPktSize::4                     0                       # Read request sizes (log2)
system.mem_ctrls.readPktSize::5                     0                       # Read request sizes (log2)
system.mem_ctrls.readPktSize::6                189456                       # Read request sizes (log2)
system.mem_ctrls.writePktSize::0                    0                       # Write request sizes (log2)
system.mem_ctrls.writePktSize::1                    0                       # Write request sizes (log2)
system.mem_ctrls.writePktSize::2                    0                       # Write request sizes (log2)
system.mem_ctrls.writePktSize::3                    0                       # Write request sizes (log2)
system.mem_ctrls.writePktSize::4                    0                       # Write request sizes (log2)
system.mem_ctrls.writePktSize::5                    0                       # Write request sizes (log2)
system.mem_ctrls.writePktSize::6                  292                       # Write request sizes (log2)
system.mem_ctrls.rdQLenPdf::0                  144075                       # What read queue length does an incoming req see
system.mem_ctrls.rdQLenPdf::1                   42428                       # What read queue length does an incoming req see
system.mem_ctrls.rdQLenPdf::2                    2864                       # What read queue length does an incoming req see
system.mem_ctrls.rdQLenPdf::3                      53                       # What read queue length does an incoming req see
system.mem_ctrls.rdQLenPdf::4                       0                       # What read queue length does an incoming req see
system.mem_ctrls.rdQLenPdf::5                       0                       # What read queue length does an incoming req see
system.mem_ctrls.rdQLenPdf::6                       0                       # What read queue length does an incoming req see
system.mem_ctrls.rdQLenPdf::7                       0                       # What read queue length does an incoming req see
system.mem_ctrls.rdQLenPdf::8                       0                       # What read queue length does an incoming req see
system.mem_ctrls.rdQLenPdf::9                       0                       # What read queue length does an incoming req see
system.mem_ctrls.rdQLenPdf::10                      0                       # What read queue length does an incoming req see
system.mem_ctrls.rdQLenPdf::11                      0                       # What read queue length does an incoming req see
system.mem_ctrls.rdQLenPdf::12                      0                       # What read queue length does an incoming req see
system.mem_ctrls.rdQLenPdf::13                      0                       # What read queue length does an incoming req see
system.mem_ctrls.rdQLenPdf::14                      0                       # What read queue length does an incoming req see
system.mem_ctrls.rdQLenPdf::15                      0                       # What read queue length does an incoming req see
system.mem_ctrls.rdQLenPdf::16                      0                       # What read queue length does an incoming req see
system.mem_ctrls.rdQLenPdf::17                      0                       # What read queue length does an incoming req see
system.mem_ctrls.rdQLenPdf::18                      0                       # What read queue length does an incoming req see
system.mem_ctrls.rdQLenPdf::19                      0                       # What read queue length does an incoming req see
system.mem_ctrls.rdQLenPdf::20                      0                       # What read queue length does an incoming req see
system.mem_ctrls.rdQLenPdf::21                      0                       # What read queue length does an incoming req see
system.mem_ctrls.rdQLenPdf::22                      0                       # What read queue length does an incoming req see
system.mem_ctrls.rdQLenPdf::23                      0                       # What read queue length does an incoming req see
system.mem_ctrls.rdQLenPdf::24                      0                       # What read queue length does an incoming req see
system.mem_ctrls.rdQLenPdf::25                      0                       # What read queue length does an incoming req see
system.mem_ctrls.rdQLenPdf::26                      0                       # What read queue length does an incoming req see
system.mem_ctrls.rdQLenPdf::27                      0                       # What read queue length does an incoming req see
system.mem_ctrls.rdQLenPdf::28                      0                       # What read queue length does an incoming req see
system.mem_ctrls.rdQLenPdf::29                      0                       # What read queue length does an incoming req see
system.mem_ctrls.rdQLenPdf::30                      0                       # What read queue length does an incoming req see
system.mem_ctrls.rdQLenPdf::31                      0                       # What read queue length does an incoming req see
system.mem_ctrls.wrQLenPdf::0                       0                       # What write queue length does an incoming req see
system.mem_ctrls.wrQLenPdf::1                       0                       # What write queue length does an incoming req see
system.mem_ctrls.wrQLenPdf::2                       0                       # What write queue length does an incoming req see
system.mem_ctrls.wrQLenPdf::3                       0                       # What write queue length does an incoming req see
system.mem_ctrls.wrQLenPdf::4                       0                       # What write queue length does an incoming req see
system.mem_ctrls.wrQLenPdf::5                       0                       # What write queue length does an incoming req see
system.mem_ctrls.wrQLenPdf::6                       0                       # What write queue length does an incoming req see
system.mem_ctrls.wrQLenPdf::7                       0                       # What write queue length does an incoming req see
system.mem_ctrls.wrQLenPdf::8                       0                       # What write queue length does an incoming req see
system.mem_ctrls.wrQLenPdf::9                       0                       # What write queue length does an incoming req see
system.mem_ctrls.wrQLenPdf::10                      0                       # What write queue length does an incoming req see
system.mem_ctrls.wrQLenPdf::11                      0                       # What write queue length does an incoming req see
system.mem_ctrls.wrQLenPdf::12                      0                       # What write queue length does an incoming req see
system.mem_ctrls.wrQLenPdf::13                      0                       # What write queue length does an incoming req see
system.mem_ctrls.wrQLenPdf::14                      0                       # What write queue length does an incoming req see
system.mem_ctrls.wrQLenPdf::15                      0                       # What write queue length does an incoming req see
system.mem_ctrls.wrQLenPdf::16                      0                       # What write queue length does an incoming req see
system.mem_ctrls.wrQLenPdf::17                     19                       # What write queue length does an incoming req see
system.mem_ctrls.wrQLenPdf::18                     19                       # What write queue length does an incoming req see
system.mem_ctrls.wrQLenPdf::19                     19                       # What write queue length does an incoming req see
system.mem_ctrls.wrQLenPdf::20                     19                       # What write queue length does an incoming req see
system.mem_ctrls.wrQLenPdf::21                     18                       # What write queue length does an incoming req see
system.mem_ctrls.wrQLenPdf::22                     18                       # What write queue length does an incoming req see
system.mem_ctrls.wrQLenPdf::23                     18                       # What write queue length does an incoming req see
system.mem_ctrls.wrQLenPdf::24                     18                       # What write queue length does an incoming req see
system.mem_ctrls.wrQLenPdf::25                     18                       # What write queue length does an incoming req see
system.mem_ctrls.wrQLenPdf::26                     18                       # What write queue length does an incoming req see
system.mem_ctrls.wrQLenPdf::27                     18                       # What write queue length does an incoming req see
system.mem_ctrls.wrQLenPdf::28                     18                       # What write queue length does an incoming req see
system.mem_ctrls.wrQLenPdf::29                     18                       # What write queue length does an incoming req see
system.mem_ctrls.wrQLenPdf::30                     18                       # What write queue length does an incoming req see
system.mem_ctrls.wrQLenPdf::31                     18                       # What write queue length does an incoming req see
system.mem_ctrls.wrQLenPdf::32                     18                       # What write queue length does an incoming req see
system.mem_ctrls.wrQLenPdf::33                      0                       # What write queue length does an incoming req see
system.mem_ctrls.wrQLenPdf::34                      0                       # What write queue length does an incoming req see
system.mem_ctrls.wrQLenPdf::35                      0                       # What write queue length does an incoming req see
system.mem_ctrls.wrQLenPdf::36                      0                       # What write queue length does an incoming req see
system.mem_ctrls.wrQLenPdf::37                      0                       # What write queue length does an incoming req see
system.mem_ctrls.wrQLenPdf::38                      0                       # What write queue length does an incoming req see
system.mem_ctrls.wrQLenPdf::39                      0                       # What write queue length does an incoming req see
system.mem_ctrls.wrQLenPdf::40                      0                       # What write queue length does an incoming req see
system.mem_ctrls.wrQLenPdf::41                      0                       # What write queue length does an incoming req see
system.mem_ctrls.wrQLenPdf::42                      0                       # What write queue length does an incoming req see
system.mem_ctrls.wrQLenPdf::43                      0                       # What write queue length does an incoming req see
system.mem_ctrls.wrQLenPdf::44                      0                       # What write queue length does an incoming req see
system.mem_ctrls.wrQLenPdf::45                      0                       # What write queue length does an incoming req see
system.mem_ctrls.wrQLenPdf::46                      0                       # What write queue length does an incoming req see
system.mem_ctrls.wrQLenPdf::47                      0                       # What write queue length does an incoming req see
system.mem_ctrls.wrQLenPdf::48                      0                       # What write queue length does an incoming req see
system.mem_ctrls.wrQLenPdf::49                      0                       # What write queue length does an incoming req see
system.mem_ctrls.wrQLenPdf::50                      0                       # What write queue length does an incoming req see
system.mem_ctrls.wrQLenPdf::51                      0                       # What write queue length does an incoming req see
system.mem_ctrls.wrQLenPdf::52                      0                       # What write queue length does an incoming req see
system.mem_ctrls.wrQLenPdf::53                      0                       # What write queue length does an incoming req see
system.mem_ctrls.wrQLenPdf::54                      0                       # What write queue length does an incoming req see
system.mem_ctrls.wrQLenPdf::55                      0                       # What write queue length does an incoming req see
system.mem_ctrls.wrQLenPdf::56                      0                       # What write queue length does an incoming req see
system.mem_ctrls.wrQLenPdf::57                      0                       # What write queue length does an incoming req see
system.mem_ctrls.wrQLenPdf::58                      0                       # What write queue length does an incoming req see
system.mem_ctrls.wrQLenPdf::59                      0                       # What write queue length does an incoming req see
system.mem_ctrls.wrQLenPdf::60                      0                       # What write queue length does an incoming req see
system.mem_ctrls.wrQLenPdf::61                      0                       # What write queue length does an incoming req see
system.mem_ctrls.wrQLenPdf::62                      0                       # What write queue length does an incoming req see
system.mem_ctrls.wrQLenPdf::63                      0                       # What write queue length does an incoming req see
system.mem_ctrls.bytesPerActivate::samples        97221                       # Bytes accessed per row activation
system.mem_ctrls.bytesPerActivate::mean    124.892194                       # Bytes accessed per row activation
system.mem_ctrls.bytesPerActivate::gmean   107.658578                       # Bytes accessed per row activation
system.mem_ctrls.bytesPerActivate::stdev    74.286100                       # Bytes accessed per row activation
system.mem_ctrls.bytesPerActivate::0-127        43901     45.16%     45.16% # Bytes accessed per row activation
system.mem_ctrls.bytesPerActivate::128-255        43371     44.61%     89.77% # Bytes accessed per row activation
system.mem_ctrls.bytesPerActivate::256-383         8688      8.94%     98.70% # Bytes accessed per row activation
system.mem_ctrls.bytesPerActivate::384-511         1122      1.15%     99.86% # Bytes accessed per row activation
system.mem_ctrls.bytesPerActivate::512-639          118      0.12%     99.98% # Bytes accessed per row activation
system.mem_ctrls.bytesPerActivate::640-767           15      0.02%     99.99% # Bytes accessed per row activation
system.mem_ctrls.bytesPerActivate::768-895            1      0.00%     99.99% # Bytes accessed per row activation
system.mem_ctrls.bytesPerActivate::896-1023            1      0.00%    100.00% # Bytes accessed per row activation
system.mem_ctrls.bytesPerActivate::1024-1151            4      0.00%    100.00% # Bytes accessed per row activation
system.mem_ctrls.bytesPerActivate::total        97221                       # Bytes accessed per row activation
system.mem_ctrls.rdPerTurnAround::samples           18                       # Reads before turning the bus around for writes
system.mem_ctrls.rdPerTurnAround::mean   10243.722222                       # Reads before turning the bus around for writes
system.mem_ctrls.rdPerTurnAround::gmean   9847.847727                       # Reads before turning the bus around for writes
system.mem_ctrls.rdPerTurnAround::stdev   2942.254934                       # Reads before turning the bus around for writes
system.mem_ctrls.rdPerTurnAround::4096-5119            1      5.56%      5.56% # Reads before turning the bus around for writes
system.mem_ctrls.rdPerTurnAround::6144-7167            1      5.56%     11.11% # Reads before turning the bus around for writes
system.mem_ctrls.rdPerTurnAround::7168-8191            2     11.11%     22.22% # Reads before turning the bus around for writes
system.mem_ctrls.rdPerTurnAround::8192-9215            3     16.67%     38.89% # Reads before turning the bus around for writes
system.mem_ctrls.rdPerTurnAround::9216-10239            3     16.67%     55.56% # Reads before turning the bus around for writes
system.mem_ctrls.rdPerTurnAround::10240-11263            3     16.67%     72.22% # Reads before turning the bus around for writes
system.mem_ctrls.rdPerTurnAround::11264-12287            1      5.56%     77.78% # Reads before turning the bus around for writes
system.mem_ctrls.rdPerTurnAround::12288-13311            2     11.11%     88.89% # Reads before turning the bus around for writes
system.mem_ctrls.rdPerTurnAround::14336-15359            1      5.56%     94.44% # Reads before turning the bus around for writes
system.mem_ctrls.rdPerTurnAround::16384-17407            1      5.56%    100.00% # Reads before turning the bus around for writes
system.mem_ctrls.rdPerTurnAround::total            18                       # Reads before turning the bus around for writes
system.mem_ctrls.wrPerTurnAround::samples           18                       # Writes before turning the bus around for reads
system.mem_ctrls.wrPerTurnAround::mean             16                       # Writes before turning the bus around for reads
system.mem_ctrls.wrPerTurnAround::gmean     16.000000                       # Writes before turning the bus around for reads
system.mem_ctrls.wrPerTurnAround::16               18    100.00%    100.00% # Writes before turning the bus around for reads
system.mem_ctrls.wrPerTurnAround::total            18                       # Writes before turning the bus around for reads
system.mem_ctrls.totQLat                   4738166500                       # Total ticks spent queuing
system.mem_ctrls.totMemAccLat              8289791500                       # Total ticks spent from burst creation until serviced by the DRAM
system.mem_ctrls.totBusLat                  947100000                       # Total ticks spent in databus transfers
system.mem_ctrls.avgQLat                     25014.08                       # Average queueing delay per DRAM burst
system.mem_ctrls.avgBusLat                    5000.00                       # Average bus latency per DRAM burst
system.mem_ctrls.avgMemAccLat                43764.08                       # Average memory access latency per DRAM burst
system.mem_ctrls.avgRdBW                       794.04                       # Average DRAM read bandwidth in MiByte/s
system.mem_ctrls.avgWrBW                         1.21                       # Average achieved write bandwidth in MiByte/s
system.mem_ctrls.avgRdBWSys                    794.19                       # Average system read bandwidth in MiByte/s
system.mem_ctrls.avgWrBWSys                      1.22                       # Average system write bandwidth in MiByte/s
system.mem_ctrls.peakBW                      12800.00                       # Theoretical peak bandwidth in MiByte/s
system.mem_ctrls.busUtil                         6.21                       # Data bus utilization in percentage
system.mem_ctrls.busUtilRead                     6.20                       # Data bus utilization in percentage for reads
system.mem_ctrls.busUtilWrite                    0.01                       # Data bus utilization in percentage for writes
system.mem_ctrls.avgRdQLen                       1.31                       # Average read queue length when enqueuing
system.mem_ctrls.avgWrQLen                      25.24                       # Average write queue length when enqueuing
system.mem_ctrls.readRowHits                    92243                       # Number of row buffer hits during reads
system.mem_ctrls.writeRowHits                     244                       # Number of row buffer hits during writes
system.mem_ctrls.readRowHitRate                 48.70                       # Row buffer hit rate for reads
system.mem_ctrls.writeRowHitRate                83.56                       # Row buffer hit rate for writes
system.mem_ctrls.avgGap                      80461.20                       # Average gap between requests
system.mem_ctrls.pageHitRate                    48.75                       # Row buffer hit rate, read and write combined
system.mem_ctrls_0.actEnergy                350231280                       # Energy for activate commands per rank (pJ)
system.mem_ctrls_0.preEnergy                186152340                       # Energy for precharge commands per rank (pJ)
system.mem_ctrls_0.readEnergy               682998120                       # Energy for read commands per rank (pJ)
system.mem_ctrls_0.writeEnergy                1383300                       # Energy for write commands per rank (pJ)
system.mem_ctrls_0.refreshEnergy         1205309040.000000                       # Energy for refresh commands per rank (pJ)
system.mem_ctrls_0.actBackEnergy           1617637770                       # Energy for active background per rank (pJ)
system.mem_ctrls_0.preBackEnergy             24452160                       # Energy for precharge background per rank (pJ)
system.mem_ctrls_0.actPowerDownEnergy      5224136640                       # Energy for active power-down per rank (pJ)
system.mem_ctrls_0.prePowerDownEnergy        76713600                       # Energy for precharge power-down per rank (pJ)
system.mem_ctrls_0.selfRefreshEnergy                0                       # Energy for self refresh per rank (pJ)
system.mem_ctrls_0.totalEnergy             9369014250                       # Total energy per rank (pJ)
system.mem_ctrls_0.averagePower            613.663658                       # Core power per rank (mW)
system.mem_ctrls_0.totalIdleTime          11655961250                       # Total Idle time Per DRAM Rank
system.mem_ctrls_0.memoryStateTime::IDLE      9374000                       # Time in different power states
system.mem_ctrls_0.memoryStateTime::REF     509860000                       # Time in different power states
system.mem_ctrls_0.memoryStateTime::SREF            0                       # Time in different power states
system.mem_ctrls_0.memoryStateTime::PRE_PDN    199891250                       # Time in different power states
system.mem_ctrls_0.memoryStateTime::ACT    3091574250                       # Time in different power states
system.mem_ctrls_0.memoryStateTime::ACT_PDN  11456644625                       # Time in different power states
system.mem_ctrls_1.actEnergy                343926660                       # Energy for activate commands per rank (pJ)
system.mem_ctrls_1.preEnergy                182801355                       # Energy for precharge commands per rank (pJ)
system.mem_ctrls_1.readEnergy               669460680                       # Energy for read commands per rank (pJ)
system.mem_ctrls_1.writeEnergy                 120060                       # Energy for write commands per rank (pJ)
system.mem_ctrls_1.refreshEnergy         1205309040.000000                       # Energy for refresh commands per rank (pJ)
system.mem_ctrls_1.actBackEnergy           1590784500                       # Energy for active background per rank (pJ)
system.mem_ctrls_1.preBackEnergy             24592800                       # Energy for precharge background per rank (pJ)
system.mem_ctrls_1.actPowerDownEnergy      5192661810                       # Energy for active power-down per rank (pJ)
system.mem_ctrls_1.prePowerDownEnergy       125691360                       # Energy for precharge power-down per rank (pJ)
system.mem_ctrls_1.selfRefreshEnergy                0                       # Energy for self refresh per rank (pJ)
system.mem_ctrls_1.totalEnergy             9335348265                       # Total energy per rank (pJ)
system.mem_ctrls_1.averagePower            611.458561                       # Core power per rank (mW)
system.mem_ctrls_1.totalIdleTime          11713283750                       # Total Idle time Per DRAM Rank
system.mem_ctrls_1.memoryStateTime::IDLE      9626500                       # Time in different power states
system.mem_ctrls_1.memoryStateTime::REF     509860000                       # Time in different power states
system.mem_ctrls_1.memoryStateTime::SREF            0                       # Time in different power states
system.mem_ctrls_1.memoryStateTime::PRE_PDN    326979750                       # Time in different power states
system.mem_ctrls_1.memoryStateTime::ACT    3034561250                       # Time in different power states
system.mem_ctrls_1.memoryStateTime::ACT_PDN  11386316625                       # Time in different power states
system.pwrStateResidencyTicks::UNDEFINED  15267344125                       # Cumulative time (in ticks) in various power states
system.cpu0.branchPred.lookups                1576808                       # Number of BP lookups
system.cpu0.branchPred.condPredicted          1576808                       # Number of conditional branches predicted
system.cpu0.branchPred.condIncorrect            60986                       # Number of conditional branches incorrect
system.cpu0.branchPred.BTBLookups             1177246                       # Number of BTB lookups
system.cpu0.branchPred.BTBHits                      0                       # Number of BTB hits
system.cpu0.branchPred.BTBCorrect                   0                       # Number of correct BTB predictions (this stat may not work properly.
system.cpu0.branchPred.BTBHitPct             0.000000                       # BTB Hit Percentage
system.cpu0.branchPred.usedRAS                  36895                       # Number of times the RAS was used to get a target.
system.cpu0.branchPred.RASInCorrect              5706                       # Number of incorrect RAS predictions.
system.cpu0.branchPred.indirectLookups        1177246                       # Number of indirect predictor lookups.
system.cpu0.branchPred.indirectHits            684679                       # Number of indirect target hits.
system.cpu0.branchPred.indirectMisses          492567                       # Number of indirect misses.
system.cpu0.branchPredindirectMispredicted        18239                       # Number of mispredicted indirect branches.
system.cpu_voltage_domain.voltage                   1                       # Voltage in Volts
system.cpu_clk_domain.clock                       500                       # Clock period in ticks
system.cpu0.dtb.walker.pwrStateResidencyTicks::UNDEFINED  15267344125                       # Cumulative time (in ticks) in various power states
system.cpu0.dtb.rdAccesses                     739870                       # TLB accesses on read requests
system.cpu0.dtb.wrAccesses                      41052                       # TLB accesses on write requests
system.cpu0.dtb.rdMisses                       159493                       # TLB misses on read requests
system.cpu0.dtb.wrMisses                          761                       # TLB misses on write requests
system.cpu0.apic_clk_domain.clock                8000                       # Clock period in ticks
system.cpu0.interrupts.pwrStateResidencyTicks::UNDEFINED  15267344125                       # Cumulative time (in ticks) in various power states
system.cpu0.itb.walker.pwrStateResidencyTicks::UNDEFINED  15267344125                       # Cumulative time (in ticks) in various power states
system.cpu0.itb.rdAccesses                          0                       # TLB accesses on read requests
system.cpu0.itb.wrAccesses                    1343913                       # TLB accesses on write requests
system.cpu0.itb.rdMisses                            0                       # TLB misses on read requests
system.cpu0.itb.wrMisses                         4397                       # TLB misses on write requests
system.cpu0.workload.numSyscalls                    0                       # Number of system calls
system.cpu0.pwrStateResidencyTicks::ON    15267344125                       # Cumulative time (in ticks) in various power states
system.cpu0.numCycles                        30534688                       # number of cpu cycles simulated
system.cpu0.numWorkItemsStarted                     0                       # number of work items this cpu started
system.cpu0.numWorkItemsCompleted                   0                       # number of work items this cpu completed
system.cpu0.fetch.icacheStallCycles           1369898                       # Number of cycles fetch is stalled on an Icache miss
system.cpu0.fetch.Insts                       4495811                       # Number of instructions fetch has processed
system.cpu0.fetch.Branches                    1576808                       # Number of branches that fetch encountered
system.cpu0.fetch.predictedBranches            721574                       # Number of branches that fetch has predicted taken
system.cpu0.fetch.Cycles                     29020548                       # Number of cycles fetch has run and was not squashing or blocked
system.cpu0.fetch.SquashCycles                 124798                       # Number of cycles fetch has spent squashing
system.cpu0.fetch.TlbCycles                      1847                       # Number of cycles fetch has spent waiting for tlb
system.cpu0.fetch.MiscStallCycles                1015                       # Number of cycles fetch has spent waiting on interrupts, or bad addresses, or out of MSHRs
system.cpu0.fetch.PendingTrapStallCycles        37971                       # Number of stall cycles due to pending traps
system.cpu0.fetch.CacheLines                  1339516                       # Number of cache lines fetched
system.cpu0.fetch.IcacheSquashes                 6742                       # Number of outstanding Icache misses that were squashed
system.cpu0.fetch.ItlbSquashes                      6                       # Number of outstanding ITLB misses that were squashed
system.cpu0.fetch.rateDist::samples          30493678                       # Number of instructions fetched each cycle (Total)
system.cpu0.fetch.rateDist::mean             0.295632                       # Number of instructions fetched each cycle (Total)
system.cpu0.fetch.rateDist::stdev            1.366000                       # Number of instructions fetched each cycle (Total)
system.cpu0.fetch.rateDist::underflows              0      0.00%      0.00% # Number of instructions fetched each cycle (Total)
system.cpu0.fetch.rateDist::0                28720571     94.19%     94.19% # Number of instructions fetched each cycle (Total)
system.cpu0.fetch.rateDist::1                   18518      0.06%     94.25% # Number of instructions fetched each cycle (Total)
system.cpu0.fetch.rateDist::2                  681376      2.23%     96.48% # Number of instructions fetched each cycle (Total)
system.cpu0.fetch.rateDist::3                   20842      0.07%     96.55% # Number of instructions fetched each cycle (Total)
system.cpu0.fetch.rateDist::4                  126762      0.42%     96.96% # Number of instructions fetched each cycle (Total)
system.cpu0.fetch.rateDist::5                   52084      0.17%     97.14% # Number of instructions fetched each cycle (Total)
system.cpu0.fetch.rateDist::6                   82894      0.27%     97.41% # Number of instructions fetched each cycle (Total)
system.cpu0.fetch.rateDist::7                   18767      0.06%     97.47% # Number of instructions fetched each cycle (Total)
system.cpu0.fetch.rateDist::8                  771864      2.53%    100.00% # Number of instructions fetched each cycle (Total)
system.cpu0.fetch.rateDist::overflows               0      0.00%    100.00% # Number of instructions fetched each cycle (Total)
system.cpu0.fetch.rateDist::min_value               0                       # Number of instructions fetched each cycle (Total)
system.cpu0.fetch.rateDist::max_value               8                       # Number of instructions fetched each cycle (Total)
system.cpu0.fetch.rateDist::total            30493678                       # Number of instructions fetched each cycle (Total)
system.cpu0.fetch.branchRate                 0.051640                       # Number of branch fetches per cycle
system.cpu0.fetch.rate                       0.147236                       # Number of inst fetches per cycle
system.cpu0.decode.IdleCycles                  660347                       # Number of cycles decode is idle
system.cpu0.decode.BlockedCycles             28622499                       # Number of cycles decode is blocked
system.cpu0.decode.RunCycles                   830338                       # Number of cycles decode is running
system.cpu0.decode.UnblockCycles               318095                       # Number of cycles decode is unblocking
system.cpu0.decode.SquashCycles                 62399                       # Number of cycles decode is squashing
system.cpu0.decode.DecodedInsts               7428035                       # Number of instructions handled by decode
system.cpu0.rename.SquashCycles                 62399                       # Number of cycles rename is squashing
system.cpu0.rename.IdleCycles                  753289                       # Number of cycles rename is idle
system.cpu0.rename.BlockCycles               27339343                       # Number of cycles rename is blocking
system.cpu0.rename.serializeStallCycles          8036                       # count of cycles rename stalled for serializing inst
system.cpu0.rename.RunCycles                   976733                       # Number of cycles rename is running
system.cpu0.rename.UnblockCycles              1353878                       # Number of cycles rename is unblocking
system.cpu0.rename.RenamedInsts               7144599                       # Number of instructions processed by rename
system.cpu0.rename.ROBFullEvents                60260                       # Number of times rename has blocked due to ROB full
system.cpu0.rename.IQFullEvents               1078268                       # Number of times rename has blocked due to IQ full
system.cpu0.rename.LQFullEvents                229763                       # Number of times rename has blocked due to LQ full
system.cpu0.rename.SQFullEvents                   811                       # Number of times rename has blocked due to SQ full
system.cpu0.rename.RenamedOperands            8524885                       # Number of destination operands rename has renamed
system.cpu0.rename.RenameLookups             20005621                       # Number of register rename lookups that rename has made
system.cpu0.rename.int_rename_lookups         9270977                       # Number of integer rename lookups
system.cpu0.rename.fp_rename_lookups            25757                       # Number of floating rename lookups
system.cpu0.rename.CommittedMaps              3103887                       # Number of HB maps that are committed
system.cpu0.rename.UndoneMaps                 5420995                       # Number of HB maps that are undone due to squashing
system.cpu0.rename.serializingInsts               219                       # count of serializing insts renamed
system.cpu0.rename.tempSerializingInsts           256                       # count of temporary serializing insts renamed
system.cpu0.rename.skidInsts                  2037339                       # count of insts added to the skid buffer
system.cpu0.memDep0.insertedLoads             1319262                       # Number of loads inserted to the mem dependence unit.
system.cpu0.memDep0.insertedStores              59704                       # Number of stores inserted to the mem dependence unit.
system.cpu0.memDep0.conflictingLoads             2987                       # Number of conflicting loads.
system.cpu0.memDep0.conflictingStores            3436                       # Number of conflicting stores.
system.cpu0.iq.iqInstsAdded                   6818376                       # Number of instructions added to the IQ (excludes non-spec)
system.cpu0.iq.iqNonSpecInstsAdded               3229                       # Number of non-speculative instructions added to the IQ
system.cpu0.iq.iqInstsIssued                  4855140                       # Number of instructions issued
system.cpu0.iq.iqSquashedInstsIssued             4806                       # Number of squashed instructions issued
system.cpu0.iq.iqSquashedInstsExamined        4231526                       # Number of squashed instructions iterated over during squash; mainly for profiling
system.cpu0.iq.iqSquashedOperandsExamined      9073883                       # Number of squashed operands that are examined and possibly removed from graph
system.cpu0.iq.iqSquashedNonSpecRemoved          3229                       # Number of squashed non-spec instructions that were removed
system.cpu0.iq.issued_per_cycle::samples     30493678                       # Number of insts issued each cycle
system.cpu0.iq.issued_per_cycle::mean        0.159218                       # Number of insts issued each cycle
system.cpu0.iq.issued_per_cycle::stdev       0.718359                       # Number of insts issued each cycle
system.cpu0.iq.issued_per_cycle::underflows            0      0.00%      0.00% # Number of insts issued each cycle
system.cpu0.iq.issued_per_cycle::0           28452599     93.31%     93.31% # Number of insts issued each cycle
system.cpu0.iq.issued_per_cycle::1             830155      2.72%     96.03% # Number of insts issued each cycle
system.cpu0.iq.issued_per_cycle::2             435990      1.43%     97.46% # Number of insts issued each cycle
system.cpu0.iq.issued_per_cycle::3             292913      0.96%     98.42% # Number of insts issued each cycle
system.cpu0.iq.issued_per_cycle::4             297735      0.98%     99.40% # Number of insts issued each cycle
system.cpu0.iq.issued_per_cycle::5              78659      0.26%     99.65% # Number of insts issued each cycle
system.cpu0.iq.issued_per_cycle::6              66526      0.22%     99.87% # Number of insts issued each cycle
system.cpu0.iq.issued_per_cycle::7              21933      0.07%     99.94% # Number of insts issued each cycle
system.cpu0.iq.issued_per_cycle::8              17168      0.06%    100.00% # Number of insts issued each cycle
system.cpu0.iq.issued_per_cycle::overflows            0      0.00%    100.00% # Number of insts issued each cycle
system.cpu0.iq.issued_per_cycle::min_value            0                       # Number of insts issued each cycle
system.cpu0.iq.issued_per_cycle::max_value            8                       # Number of insts issued each cycle
system.cpu0.iq.issued_per_cycle::total       30493678                       # Number of insts issued each cycle
system.cpu0.iq.fu_full::No_OpClass                  0      0.00%      0.00% # attempts to use FU when none available
system.cpu0.iq.fu_full::IntAlu                   8466     68.59%     68.59% # attempts to use FU when none available
system.cpu0.iq.fu_full::IntMult                     0      0.00%     68.59% # attempts to use FU when none available
system.cpu0.iq.fu_full::IntDiv                      0      0.00%     68.59% # attempts to use FU when none available
system.cpu0.iq.fu_full::FloatAdd                  805      6.52%     75.11% # attempts to use FU when none available
system.cpu0.iq.fu_full::FloatCmp                    0      0.00%     75.11% # attempts to use FU when none available
system.cpu0.iq.fu_full::FloatCvt                    0      0.00%     75.11% # attempts to use FU when none available
system.cpu0.iq.fu_full::FloatMult                   0      0.00%     75.11% # attempts to use FU when none available
system.cpu0.iq.fu_full::FloatMultAcc                0      0.00%     75.11% # attempts to use FU when none available
system.cpu0.iq.fu_full::FloatDiv                    0      0.00%     75.11% # attempts to use FU when none available
system.cpu0.iq.fu_full::FloatMisc                   0      0.00%     75.11% # attempts to use FU when none available
system.cpu0.iq.fu_full::FloatSqrt                   0      0.00%     75.11% # attempts to use FU when none available
system.cpu0.iq.fu_full::SimdAdd                     0      0.00%     75.11% # attempts to use FU when none available
system.cpu0.iq.fu_full::SimdAddAcc                  0      0.00%     75.11% # attempts to use FU when none available
system.cpu0.iq.fu_full::SimdAlu                     0      0.00%     75.11% # attempts to use FU when none available
system.cpu0.iq.fu_full::SimdCmp                     0      0.00%     75.11% # attempts to use FU when none available
system.cpu0.iq.fu_full::SimdCvt                     0      0.00%     75.11% # attempts to use FU when none available
system.cpu0.iq.fu_full::SimdMisc                    0      0.00%     75.11% # attempts to use FU when none available
system.cpu0.iq.fu_full::SimdMult                    0      0.00%     75.11% # attempts to use FU when none available
system.cpu0.iq.fu_full::SimdMultAcc                 0      0.00%     75.11% # attempts to use FU when none available
system.cpu0.iq.fu_full::SimdShift                   0      0.00%     75.11% # attempts to use FU when none available
system.cpu0.iq.fu_full::SimdShiftAcc                0      0.00%     75.11% # attempts to use FU when none available
system.cpu0.iq.fu_full::SimdSqrt                    0      0.00%     75.11% # attempts to use FU when none available
system.cpu0.iq.fu_full::SimdFloatAdd                0      0.00%     75.11% # attempts to use FU when none available
system.cpu0.iq.fu_full::SimdFloatAlu                0      0.00%     75.11% # attempts to use FU when none available
system.cpu0.iq.fu_full::SimdFloatCmp                0      0.00%     75.11% # attempts to use FU when none available
system.cpu0.iq.fu_full::SimdFloatCvt                0      0.00%     75.11% # attempts to use FU when none available
system.cpu0.iq.fu_full::SimdFloatDiv                0      0.00%     75.11% # attempts to use FU when none available
system.cpu0.iq.fu_full::SimdFloatMisc               0      0.00%     75.11% # attempts to use FU when none available
system.cpu0.iq.fu_full::SimdFloatMult               0      0.00%     75.11% # attempts to use FU when none available
system.cpu0.iq.fu_full::SimdFloatMultAcc            0      0.00%     75.11% # attempts to use FU when none available
system.cpu0.iq.fu_full::SimdFloatSqrt               0      0.00%     75.11% # attempts to use FU when none available
system.cpu0.iq.fu_full::MemRead                  2819     22.84%     97.95% # attempts to use FU when none available
system.cpu0.iq.fu_full::MemWrite                  199      1.61%     99.56% # attempts to use FU when none available
system.cpu0.iq.fu_full::FloatMemRead               16      0.13%     99.69% # attempts to use FU when none available
system.cpu0.iq.fu_full::FloatMemWrite              38      0.31%    100.00% # attempts to use FU when none available
system.cpu0.iq.fu_full::IprAccess                   0      0.00%    100.00% # attempts to use FU when none available
system.cpu0.iq.fu_full::InstPrefetch                0      0.00%    100.00% # attempts to use FU when none available
system.cpu0.iq.FU_type_0::No_OpClass            14607      0.30%      0.30% # Type of FU issued
system.cpu0.iq.FU_type_0::IntAlu              4007448     82.54%     82.84% # Type of FU issued
system.cpu0.iq.FU_type_0::IntMult                 647      0.01%     82.85% # Type of FU issued
system.cpu0.iq.FU_type_0::IntDiv                 7371      0.15%     83.01% # Type of FU issued
system.cpu0.iq.FU_type_0::FloatAdd              10396      0.21%     83.22% # Type of FU issued
system.cpu0.iq.FU_type_0::FloatCmp                  0      0.00%     83.22% # Type of FU issued
system.cpu0.iq.FU_type_0::FloatCvt                  0      0.00%     83.22% # Type of FU issued
system.cpu0.iq.FU_type_0::FloatMult                 0      0.00%     83.22% # Type of FU issued
system.cpu0.iq.FU_type_0::FloatMultAcc              0      0.00%     83.22% # Type of FU issued
system.cpu0.iq.FU_type_0::FloatDiv                  0      0.00%     83.22% # Type of FU issued
system.cpu0.iq.FU_type_0::FloatMisc                 0      0.00%     83.22% # Type of FU issued
system.cpu0.iq.FU_type_0::FloatSqrt                 0      0.00%     83.22% # Type of FU issued
system.cpu0.iq.FU_type_0::SimdAdd                   0      0.00%     83.22% # Type of FU issued
system.cpu0.iq.FU_type_0::SimdAddAcc                0      0.00%     83.22% # Type of FU issued
system.cpu0.iq.FU_type_0::SimdAlu                   0      0.00%     83.22% # Type of FU issued
system.cpu0.iq.FU_type_0::SimdCmp                   0      0.00%     83.22% # Type of FU issued
system.cpu0.iq.FU_type_0::SimdCvt                   0      0.00%     83.22% # Type of FU issued
system.cpu0.iq.FU_type_0::SimdMisc                  0      0.00%     83.22% # Type of FU issued
system.cpu0.iq.FU_type_0::SimdMult                  0      0.00%     83.22% # Type of FU issued
system.cpu0.iq.FU_type_0::SimdMultAcc               0      0.00%     83.22% # Type of FU issued
system.cpu0.iq.FU_type_0::SimdShift                 0      0.00%     83.22% # Type of FU issued
system.cpu0.iq.FU_type_0::SimdShiftAcc              0      0.00%     83.22% # Type of FU issued
system.cpu0.iq.FU_type_0::SimdSqrt                  0      0.00%     83.22% # Type of FU issued
system.cpu0.iq.FU_type_0::SimdFloatAdd              0      0.00%     83.22% # Type of FU issued
system.cpu0.iq.FU_type_0::SimdFloatAlu              0      0.00%     83.22% # Type of FU issued
system.cpu0.iq.FU_type_0::SimdFloatCmp              0      0.00%     83.22% # Type of FU issued
system.cpu0.iq.FU_type_0::SimdFloatCvt              0      0.00%     83.22% # Type of FU issued
system.cpu0.iq.FU_type_0::SimdFloatDiv              0      0.00%     83.22% # Type of FU issued
system.cpu0.iq.FU_type_0::SimdFloatMisc             0      0.00%     83.22% # Type of FU issued
system.cpu0.iq.FU_type_0::SimdFloatMult             0      0.00%     83.22% # Type of FU issued
system.cpu0.iq.FU_type_0::SimdFloatMultAcc            0      0.00%     83.22% # Type of FU issued
system.cpu0.iq.FU_type_0::SimdFloatSqrt             0      0.00%     83.22% # Type of FU issued
system.cpu0.iq.FU_type_0::MemRead              769169     15.84%     99.06% # Type of FU issued
system.cpu0.iq.FU_type_0::MemWrite              43924      0.90%     99.97% # Type of FU issued
system.cpu0.iq.FU_type_0::FloatMemRead           1433      0.03%    100.00% # Type of FU issued
system.cpu0.iq.FU_type_0::FloatMemWrite           145      0.00%    100.00% # Type of FU issued
system.cpu0.iq.FU_type_0::IprAccess                 0      0.00%    100.00% # Type of FU issued
system.cpu0.iq.FU_type_0::InstPrefetch              0      0.00%    100.00% # Type of FU issued
system.cpu0.iq.FU_type_0::total               4855140                       # Type of FU issued
system.cpu0.iq.rate                          0.159004                       # Inst issue rate
system.cpu0.iq.fu_busy_cnt                      12343                       # FU busy when requested
system.cpu0.iq.fu_busy_rate                  0.002542                       # FU busy rate (busy events/executed inst)
system.cpu0.iq.int_inst_queue_reads          40196102                       # Number of integer instruction queue reads
system.cpu0.iq.int_inst_queue_writes         11033312                       # Number of integer instruction queue writes
system.cpu0.iq.int_inst_queue_wakeup_accesses      4671176                       # Number of integer instruction queue wakeup accesses
system.cpu0.iq.fp_inst_queue_reads              25005                       # Number of floating instruction queue reads
system.cpu0.iq.fp_inst_queue_writes             19826                       # Number of floating instruction queue writes
system.cpu0.iq.fp_inst_queue_wakeup_accesses        11418                       # Number of floating instruction queue wakeup accesses
system.cpu0.iq.vec_inst_queue_reads                 0                       # Number of vector instruction queue reads
system.cpu0.iq.vec_inst_queue_writes                0                       # Number of vector instruction queue writes
system.cpu0.iq.vec_inst_queue_wakeup_accesses            0                       # Number of vector instruction queue wakeup accesses
system.cpu0.iq.int_alu_accesses               4840018                       # Number of integer alu accesses
system.cpu0.iq.fp_alu_accesses                  12858                       # Number of floating point alu accesses
system.cpu0.iq.vec_alu_accesses                     0                       # Number of vector alu accesses
system.cpu0.iew.lsq.thread0.forwLoads            3507                       # Number of loads that had data forwarded from stores
system.cpu0.iew.lsq.thread0.invAddrLoads            0                       # Number of loads ignored due to an invalid address
system.cpu0.iew.lsq.thread0.squashedLoads       820808                       # Number of loads squashed
system.cpu0.iew.lsq.thread0.ignoredResponses          126                       # Number of memory responses ignored because the instruction is squashed
system.cpu0.iew.lsq.thread0.memOrderViolation           11                       # Number of memory ordering violations
system.cpu0.iew.lsq.thread0.squashedStores        38453                       # Number of stores squashed
system.cpu0.iew.lsq.thread0.invAddrSwpfs            0                       # Number of software prefetches ignored due to an invalid address
system.cpu0.iew.lsq.thread0.blockedLoads            0                       # Number of blocked loads due to partial load-store forwarding
system.cpu0.iew.lsq.thread0.rescheduledLoads           31                       # Number of loads that were rescheduled
system.cpu0.iew.lsq.thread0.cacheBlocked         1551                       # Number of times an access to memory failed due to the cache being blocked
system.cpu0.iew.iewIdleCycles                       0                       # Number of cycles IEW is idle
system.cpu0.iew.iewSquashCycles                 62399                       # Number of cycles IEW is squashing
system.cpu0.iew.iewBlockCycles               25575484                       # Number of cycles IEW is blocking
system.cpu0.iew.iewUnblockCycles               262172                       # Number of cycles IEW is unblocking
system.cpu0.iew.iewDispatchedInsts            6821605                       # Number of instructions dispatched to IQ
system.cpu0.iew.iewDispSquashedInsts             3415                       # Number of squashed instructions skipped by dispatch
system.cpu0.iew.iewDispLoadInsts              1319262                       # Number of dispatched load instructions
system.cpu0.iew.iewDispStoreInsts               59704                       # Number of dispatched store instructions
system.cpu0.iew.iewDispNonSpecInsts              1194                       # Number of dispatched non-speculative instructions
system.cpu0.iew.iewIQFullEvents                 17220                       # Number of times the IQ has become full, causing a stall
system.cpu0.iew.iewLSQFullEvents                47233                       # Number of times the LSQ has become full, causing a stall
system.cpu0.iew.memOrderViolationEvents            11                       # Number of memory order violations
system.cpu0.iew.predictedTakenIncorrect         34641                       # Number of branches that were predicted taken incorrectly
system.cpu0.iew.predictedNotTakenIncorrect        33712                       # Number of branches that were predicted not taken incorrectly
system.cpu0.iew.branchMispredicts               68353                       # Number of branch mispredicts detected at execute
system.cpu0.iew.iewExecutedInsts              4778129                       # Number of executed instructions
system.cpu0.iew.iewExecLoadInsts               739675                       # Number of load instructions executed
system.cpu0.iew.iewExecSquashedInsts            77011                       # Number of squashed instructions skipped in execute
system.cpu0.iew.exec_swp                            0                       # number of swp insts executed
system.cpu0.iew.exec_nop                            0                       # number of nop insts executed
system.cpu0.iew.exec_refs                      780713                       # number of memory reference insts executed
system.cpu0.iew.exec_branches                  581385                       # Number of branches executed
system.cpu0.iew.exec_stores                     41038                       # Number of stores executed
system.cpu0.iew.exec_rate                    0.156482                       # Inst execution rate
system.cpu0.iew.wb_sent                       4696661                       # cumulative count of insts sent to commit
system.cpu0.iew.wb_count                      4682594                       # cumulative count of insts written-back
system.cpu0.iew.wb_producers                  3448015                       # num instructions producing a value
system.cpu0.iew.wb_consumers                  5437943                       # num instructions consuming a value
system.cpu0.iew.wb_rate                      0.153353                       # insts written-back per cycle
system.cpu0.iew.wb_fanout                    0.634066                       # average fanout of values written-back
system.cpu0.commit.commitSquashedInsts        4231954                       # The number of squashed insts skipped by commit
system.cpu0.commit.branchMispredicts            62394                       # The number of times a branch was mispredicted
system.cpu0.commit.committed_per_cycle::samples     29901426                       # Number of insts commited each cycle
system.cpu0.commit.committed_per_cycle::mean     0.086621                       # Number of insts commited each cycle
system.cpu0.commit.committed_per_cycle::stdev     0.534579                       # Number of insts commited each cycle
system.cpu0.commit.committed_per_cycle::underflows            0      0.00%      0.00% # Number of insts commited each cycle
system.cpu0.commit.committed_per_cycle::0     28756017     96.17%     96.17% # Number of insts commited each cycle
system.cpu0.commit.committed_per_cycle::1       535153      1.79%     97.96% # Number of insts commited each cycle
system.cpu0.commit.committed_per_cycle::2       124719      0.42%     98.38% # Number of insts commited each cycle
system.cpu0.commit.committed_per_cycle::3       346369      1.16%     99.53% # Number of insts commited each cycle
system.cpu0.commit.committed_per_cycle::4        59466      0.20%     99.73% # Number of insts commited each cycle
system.cpu0.commit.committed_per_cycle::5        32163      0.11%     99.84% # Number of insts commited each cycle
system.cpu0.commit.committed_per_cycle::6         4611      0.02%     99.86% # Number of insts commited each cycle
system.cpu0.commit.committed_per_cycle::7         3390      0.01%     99.87% # Number of insts commited each cycle
system.cpu0.commit.committed_per_cycle::8        39538      0.13%    100.00% # Number of insts commited each cycle
system.cpu0.commit.committed_per_cycle::overflows            0      0.00%    100.00% # Number of insts commited each cycle
system.cpu0.commit.committed_per_cycle::min_value            0                       # Number of insts commited each cycle
system.cpu0.commit.committed_per_cycle::max_value            8                       # Number of insts commited each cycle
system.cpu0.commit.committed_per_cycle::total     29901426                       # Number of insts commited each cycle
system.cpu0.commit.committedInsts             1296021                       # Number of instructions committed
system.cpu0.commit.committedOps               2590077                       # Number of ops (including micro ops) committed
system.cpu0.commit.swp_count                        0                       # Number of s/w prefetches committed
system.cpu0.commit.refs                        519705                       # Number of memory references committed
system.cpu0.commit.loads                       498454                       # Number of loads committed
system.cpu0.commit.membars                          0                       # Number of memory barriers committed
system.cpu0.commit.branches                    474466                       # Number of branches committed
system.cpu0.commit.vec_insts                        0                       # Number of committed Vector instructions.
system.cpu0.commit.fp_insts                      8508                       # Number of committed floating point instructions.
system.cpu0.commit.int_insts                  2581466                       # Number of committed integer instructions.
system.cpu0.commit.function_calls                3750                       # Number of function calls committed.
system.cpu0.commit.op_class_0::No_OpClass         2575      0.10%      0.10% # Class of committed instruction
system.cpu0.commit.op_class_0::IntAlu         2054125     79.31%     79.41% # Class of committed instruction
system.cpu0.commit.op_class_0::IntMult            150      0.01%     79.41% # Class of committed instruction
system.cpu0.commit.op_class_0::IntDiv            6250      0.24%     79.65% # Class of committed instruction
system.cpu0.commit.op_class_0::FloatAdd          7272      0.28%     79.93% # Class of committed instruction
system.cpu0.commit.op_class_0::FloatCmp             0      0.00%     79.93% # Class of committed instruction
system.cpu0.commit.op_class_0::FloatCvt             0      0.00%     79.93% # Class of committed instruction
system.cpu0.commit.op_class_0::FloatMult            0      0.00%     79.93% # Class of committed instruction
system.cpu0.commit.op_class_0::FloatMultAcc            0      0.00%     79.93% # Class of committed instruction
system.cpu0.commit.op_class_0::FloatDiv             0      0.00%     79.93% # Class of committed instruction
system.cpu0.commit.op_class_0::FloatMisc            0      0.00%     79.93% # Class of committed instruction
system.cpu0.commit.op_class_0::FloatSqrt            0      0.00%     79.93% # Class of committed instruction
system.cpu0.commit.op_class_0::SimdAdd              0      0.00%     79.93% # Class of committed instruction
system.cpu0.commit.op_class_0::SimdAddAcc            0      0.00%     79.93% # Class of committed instruction
system.cpu0.commit.op_class_0::SimdAlu              0      0.00%     79.93% # Class of committed instruction
system.cpu0.commit.op_class_0::SimdCmp              0      0.00%     79.93% # Class of committed instruction
system.cpu0.commit.op_class_0::SimdCvt              0      0.00%     79.93% # Class of committed instruction
system.cpu0.commit.op_class_0::SimdMisc             0      0.00%     79.93% # Class of committed instruction
system.cpu0.commit.op_class_0::SimdMult             0      0.00%     79.93% # Class of committed instruction
system.cpu0.commit.op_class_0::SimdMultAcc            0      0.00%     79.93% # Class of committed instruction
system.cpu0.commit.op_class_0::SimdShift            0      0.00%     79.93% # Class of committed instruction
system.cpu0.commit.op_class_0::SimdShiftAcc            0      0.00%     79.93% # Class of committed instruction
system.cpu0.commit.op_class_0::SimdSqrt             0      0.00%     79.93% # Class of committed instruction
system.cpu0.commit.op_class_0::SimdFloatAdd            0      0.00%     79.93% # Class of committed instruction
system.cpu0.commit.op_class_0::SimdFloatAlu            0      0.00%     79.93% # Class of committed instruction
system.cpu0.commit.op_class_0::SimdFloatCmp            0      0.00%     79.93% # Class of committed instruction
system.cpu0.commit.op_class_0::SimdFloatCvt            0      0.00%     79.93% # Class of committed instruction
system.cpu0.commit.op_class_0::SimdFloatDiv            0      0.00%     79.93% # Class of committed instruction
system.cpu0.commit.op_class_0::SimdFloatMisc            0      0.00%     79.93% # Class of committed instruction
system.cpu0.commit.op_class_0::SimdFloatMult            0      0.00%     79.93% # Class of committed instruction
system.cpu0.commit.op_class_0::SimdFloatMultAcc            0      0.00%     79.93% # Class of committed instruction
system.cpu0.commit.op_class_0::SimdFloatSqrt            0      0.00%     79.93% # Class of committed instruction
system.cpu0.commit.op_class_0::MemRead         497218     19.20%     99.13% # Class of committed instruction
system.cpu0.commit.op_class_0::MemWrite         21251      0.82%     99.95% # Class of committed instruction
system.cpu0.commit.op_class_0::FloatMemRead         1236      0.05%    100.00% # Class of committed instruction
system.cpu0.commit.op_class_0::FloatMemWrite            0      0.00%    100.00% # Class of committed instruction
system.cpu0.commit.op_class_0::IprAccess            0      0.00%    100.00% # Class of committed instruction
system.cpu0.commit.op_class_0::InstPrefetch            0      0.00%    100.00% # Class of committed instruction
system.cpu0.commit.op_class_0::total          2590077                       # Class of committed instruction
system.cpu0.commit.bw_lim_events                39538                       # number cycles where commit BW limit reached
system.cpu0.rob.rob_reads                    36683919                       # The number of ROB reads
system.cpu0.rob.rob_writes                   14237511                       # The number of ROB writes
system.cpu0.timesIdled                            332                       # Number of times that the entire CPU went into an idle state and unscheduled itself
system.cpu0.idleCycles                          41010                       # Total number of cycles that the CPU has spent unscheduled due to idling
system.cpu0.committedInsts                    1296021                       # Number of Instructions Simulated
system.cpu0.committedOps                      2590077                       # Number of Ops (including micro ops) Simulated
system.cpu0.cpi                             23.560334                       # CPI: Cycles Per Instruction
system.cpu0.cpi_total                       23.560334                       # CPI: Total CPI of All Threads
system.cpu0.ipc                              0.042444                       # IPC: Instructions Per Cycle
system.cpu0.ipc_total                        0.042444                       # IPC: Total IPC of All Threads
system.cpu0.int_regfile_reads                 4677994                       # number of integer regfile reads
system.cpu0.int_regfile_writes                4065032                       # number of integer regfile writes
system.cpu0.fp_regfile_reads                    20226                       # number of floating regfile reads
system.cpu0.fp_regfile_writes                   10056                       # number of floating regfile writes
system.cpu0.cc_regfile_reads                  3079138                       # number of cc regfile reads
system.cpu0.cc_regfile_writes                 1284970                       # number of cc regfile writes
system.cpu0.misc_regfile_reads                2557719                       # number of misc regfile reads
system.cpu0.dcache.tags.pwrStateResidencyTicks::UNDEFINED  15267344125                       # Cumulative time (in ticks) in various power states
system.cpu0.dcache.tags.replacements           265744                       # number of replacements
system.cpu0.dcache.tags.tagsinuse                1024                       # Cycle average of tags in use
system.cpu0.dcache.tags.total_refs             284915                       # Total number of references to valid blocks.
system.cpu0.dcache.tags.sampled_refs           265744                       # Sample count of references to valid blocks.
system.cpu0.dcache.tags.avg_refs             1.072141                       # Average number of references to valid blocks.
system.cpu0.dcache.tags.warmup_cycle                0                       # Cycle when the warmup percentage was hit.
system.cpu0.dcache.tags.occ_blocks::cpu0.data         1024                       # Average occupied blocks per requestor
system.cpu0.dcache.tags.occ_percent::cpu0.data            1                       # Average percentage of cache occupancy
system.cpu0.dcache.tags.occ_percent::total            1                       # Average percentage of cache occupancy
system.cpu0.dcache.tags.occ_task_id_blocks::1024         1024                       # Occupied blocks per task id
system.cpu0.dcache.tags.age_task_id_blocks_1024::0          201                       # Occupied blocks per task id
system.cpu0.dcache.tags.age_task_id_blocks_1024::1          822                       # Occupied blocks per task id
system.cpu0.dcache.tags.age_task_id_blocks_1024::2            1                       # Occupied blocks per task id
system.cpu0.dcache.tags.occ_task_id_percent::1024            1                       # Percentage of cache occupancy per task id
system.cpu0.dcache.tags.tag_accesses          3280604                       # Number of tag accesses
system.cpu0.dcache.tags.data_accesses         3280604                       # Number of data accesses
system.cpu0.dcache.pwrStateResidencyTicks::UNDEFINED  15267344125                       # Cumulative time (in ticks) in various power states
system.cpu0.dcache.ReadReq_hits::cpu0.data       267481                       # number of ReadReq hits
system.cpu0.dcache.ReadReq_hits::total         267481                       # number of ReadReq hits
system.cpu0.dcache.WriteReq_hits::cpu0.data        20384                       # number of WriteReq hits
system.cpu0.dcache.WriteReq_hits::total         20384                       # number of WriteReq hits
system.cpu0.dcache.demand_hits::cpu0.data       287865                       # number of demand (read+write) hits
system.cpu0.dcache.demand_hits::total          287865                       # number of demand (read+write) hits
system.cpu0.dcache.overall_hits::cpu0.data       287865                       # number of overall hits
system.cpu0.dcache.overall_hits::total         287865                       # number of overall hits
system.cpu0.dcache.ReadReq_misses::cpu0.data       464983                       # number of ReadReq misses
system.cpu0.dcache.ReadReq_misses::total       464983                       # number of ReadReq misses
system.cpu0.dcache.WriteReq_misses::cpu0.data          867                       # number of WriteReq misses
system.cpu0.dcache.WriteReq_misses::total          867                       # number of WriteReq misses
system.cpu0.dcache.demand_misses::cpu0.data       465850                       # number of demand (read+write) misses
system.cpu0.dcache.demand_misses::total        465850                       # number of demand (read+write) misses
system.cpu0.dcache.overall_misses::cpu0.data       465850                       # number of overall misses
system.cpu0.dcache.overall_misses::total       465850                       # number of overall misses
system.cpu0.dcache.ReadReq_miss_latency::cpu0.data  34400396000                       # number of ReadReq miss cycles
system.cpu0.dcache.ReadReq_miss_latency::total  34400396000                       # number of ReadReq miss cycles
system.cpu0.dcache.WriteReq_miss_latency::cpu0.data     30014497                       # number of WriteReq miss cycles
system.cpu0.dcache.WriteReq_miss_latency::total     30014497                       # number of WriteReq miss cycles
system.cpu0.dcache.demand_miss_latency::cpu0.data  34430410497                       # number of demand (read+write) miss cycles
system.cpu0.dcache.demand_miss_latency::total  34430410497                       # number of demand (read+write) miss cycles
system.cpu0.dcache.overall_miss_latency::cpu0.data  34430410497                       # number of overall miss cycles
system.cpu0.dcache.overall_miss_latency::total  34430410497                       # number of overall miss cycles
system.cpu0.dcache.ReadReq_accesses::cpu0.data       732464                       # number of ReadReq accesses(hits+misses)
system.cpu0.dcache.ReadReq_accesses::total       732464                       # number of ReadReq accesses(hits+misses)
system.cpu0.dcache.WriteReq_accesses::cpu0.data        21251                       # number of WriteReq accesses(hits+misses)
system.cpu0.dcache.WriteReq_accesses::total        21251                       # number of WriteReq accesses(hits+misses)
system.cpu0.dcache.demand_accesses::cpu0.data       753715                       # number of demand (read+write) accesses
system.cpu0.dcache.demand_accesses::total       753715                       # number of demand (read+write) accesses
system.cpu0.dcache.overall_accesses::cpu0.data       753715                       # number of overall (read+write) accesses
system.cpu0.dcache.overall_accesses::total       753715                       # number of overall (read+write) accesses
system.cpu0.dcache.ReadReq_miss_rate::cpu0.data     0.634820                       # miss rate for ReadReq accesses
system.cpu0.dcache.ReadReq_miss_rate::total     0.634820                       # miss rate for ReadReq accesses
system.cpu0.dcache.WriteReq_miss_rate::cpu0.data     0.040798                       # miss rate for WriteReq accesses
system.cpu0.dcache.WriteReq_miss_rate::total     0.040798                       # miss rate for WriteReq accesses
system.cpu0.dcache.demand_miss_rate::cpu0.data     0.618072                       # miss rate for demand accesses
system.cpu0.dcache.demand_miss_rate::total     0.618072                       # miss rate for demand accesses
system.cpu0.dcache.overall_miss_rate::cpu0.data     0.618072                       # miss rate for overall accesses
system.cpu0.dcache.overall_miss_rate::total     0.618072                       # miss rate for overall accesses
system.cpu0.dcache.ReadReq_avg_miss_latency::cpu0.data 73982.050957                       # average ReadReq miss latency
system.cpu0.dcache.ReadReq_avg_miss_latency::total 73982.050957                       # average ReadReq miss latency
system.cpu0.dcache.WriteReq_avg_miss_latency::cpu0.data 34618.797001                       # average WriteReq miss latency
system.cpu0.dcache.WriteReq_avg_miss_latency::total 34618.797001                       # average WriteReq miss latency
system.cpu0.dcache.demand_avg_miss_latency::cpu0.data 73908.791450                       # average overall miss latency
system.cpu0.dcache.demand_avg_miss_latency::total 73908.791450                       # average overall miss latency
system.cpu0.dcache.overall_avg_miss_latency::cpu0.data 73908.791450                       # average overall miss latency
system.cpu0.dcache.overall_avg_miss_latency::total 73908.791450                       # average overall miss latency
system.cpu0.dcache.blocked_cycles::no_mshrs        28192                       # number of cycles access was blocked
[...]
system.l2.ReadSharedReq_hits::cpu0.data         75627                       # number of ReadSharedReq hits
system.l2.ReadSharedReq_hits::total             75627                       # number of ReadSharedReq hits
system.l2.demand_hits::cpu0.data                76288                       # number of demand (read+write) hits
system.l2.demand_hits::total                    76288                       # number of demand (read+write) hits
system.l2.overall_hits::cpu0.data               76288                       # number of overall hits
system.l2.overall_hits::total                   76288                       # number of overall hits
system.l2.ReadExReq_misses::cpu0.data             200                       # number of ReadExReq misses
system.l2.ReadExReq_misses::total                 200                       # number of ReadExReq misses
system.l2.ReadSharedReq_misses::cpu0.data       189256                       # number of ReadSharedReq misses
system.l2.ReadSharedReq_misses::total          189256                       # number of ReadSharedReq misses
system.l2.demand_misses::cpu0.data             189456                       # number of demand (read+write) misses
system.l2.demand_misses::total                 189456                       # number of demand (read+write) misses
system.l2.overall_misses::cpu0.data            189456                       # number of overall misses
system.l2.overall_misses::total                189456                       # number of overall misses
system.l2.ReadExReq_miss_latency::cpu0.data     20471500                       # number of ReadExReq miss cycles
system.l2.ReadExReq_miss_latency::total      20471500                       # number of ReadExReq miss cycles
system.l2.ReadSharedReq_miss_latency::cpu0.data  18045510500                       # number of ReadSharedReq miss cycles
system.l2.ReadSharedReq_miss_latency::total  18045510500                       # number of ReadSharedReq miss cycles
system.l2.demand_miss_latency::cpu0.data  18065982000                       # number of demand (read+write) miss cycles
system.l2.demand_miss_latency::total      18065982000                       # number of demand (read+write) miss cycles
system.l2.overall_miss_latency::cpu0.data  18065982000                       # number of overall miss cycles
system.l2.overall_miss_latency::total     18065982000                       # number of overall miss cycles
system.l2.WritebackDirty_accesses::writebacks         2459                       # number of WritebackDirty accesses(hits+misses)
system.l2.WritebackDirty_accesses::total         2459                       # number of WritebackDirty accesses(hits+misses)
system.l2.ReadExReq_accesses::cpu0.data           861                       # number of ReadExReq accesses(hits+misses)
system.l2.ReadExReq_accesses::total               861                       # number of ReadExReq accesses(hits+misses)
system.l2.ReadSharedReq_accesses::cpu0.data       264883                       # number of ReadSharedReq accesses(hits+misses)
system.l2.ReadSharedReq_accesses::total        264883                       # number of ReadSharedReq accesses(hits+misses)
system.l2.demand_accesses::cpu0.data           265744                       # number of demand (read+write) accesses
system.l2.demand_accesses::total               265744                       # number of demand (read+write) accesses
system.l2.overall_accesses::cpu0.data          265744                       # number of overall (read+write) accesses
system.l2.overall_accesses::total              265744                       # number of overall (read+write) accesses
system.l2.ReadExReq_miss_rate::cpu0.data     0.232288                       # miss rate for ReadExReq accesses
system.l2.ReadExReq_miss_rate::total         0.232288                       # miss rate for ReadExReq accesses
system.l2.ReadSharedReq_miss_rate::cpu0.data     0.714489                       # miss rate for ReadSharedReq accesses
system.l2.ReadSharedReq_miss_rate::total     0.714489                       # miss rate for ReadSharedReq accesses
system.l2.demand_miss_rate::cpu0.data        0.712927                       # miss rate for demand accesses
system.l2.demand_miss_rate::total            0.712927                       # miss rate for demand accesses
system.l2.overall_miss_rate::cpu0.data       0.712927                       # miss rate for overall accesses
system.l2.overall_miss_rate::total           0.712927                       # miss rate for overall accesses
system.l2.ReadExReq_avg_miss_latency::cpu0.data 102357.500000                       # average ReadExReq miss latency
system.l2.ReadExReq_avg_miss_latency::total 102357.500000                       # average ReadExReq miss latency
system.l2.ReadSharedReq_avg_miss_latency::cpu0.data 95349.740563                       # average ReadSharedReq miss latency
system.l2.ReadSharedReq_avg_miss_latency::total 95349.740563                       # average ReadSharedReq miss latency
system.l2.demand_avg_miss_latency::cpu0.data 95357.138333                       # average overall miss latency
system.l2.demand_avg_miss_latency::total 95357.138333                       # average overall miss latency
system.l2.overall_avg_miss_latency::cpu0.data 95357.138333                       # average overall miss latency
system.l2.overall_avg_miss_latency::total 95357.138333                       # average overall miss latency
system.l2.blocked_cycles::no_mshrs                  0                       # number of cycles access was blocked
system.l2.blocked_cycles::no_targets                0                       # number of cycles access was blocked
system.l2.blocked::no_mshrs                         0                       # number of cycles access was blocked
system.l2.blocked::no_targets                       0                       # number of cycles access was blocked
system.l2.avg_blocked_cycles::no_mshrs            nan                       # average number of cycles each access was blocked
system.l2.avg_blocked_cycles::no_targets          nan                       # average number of cycles each access was blocked
system.l2.writebacks::writebacks                  292                       # number of writebacks
system.l2.writebacks::total                       292                       # number of writebacks
system.l2.ReadExReq_mshr_misses::cpu0.data          200                       # number of ReadExReq MSHR misses
system.l2.ReadExReq_mshr_misses::total            200                       # number of ReadExReq MSHR misses
system.l2.ReadSharedReq_mshr_misses::cpu0.data       189256                       # number of ReadSharedReq MSHR misses
system.l2.ReadSharedReq_mshr_misses::total       189256                       # number of ReadSharedReq MSHR misses
system.l2.demand_mshr_misses::cpu0.data        189456                       # number of demand (read+write) MSHR misses
system.l2.demand_mshr_misses::total            189456                       # number of demand (read+write) MSHR misses
system.l2.overall_mshr_misses::cpu0.data       189456                       # number of overall MSHR misses
system.l2.overall_mshr_misses::total           189456                       # number of overall MSHR misses
system.l2.ReadExReq_mshr_miss_latency::cpu0.data     18471500                       # number of ReadExReq MSHR miss cycles
system.l2.ReadExReq_mshr_miss_latency::total     18471500                       # number of ReadExReq MSHR miss cycles
system.l2.ReadSharedReq_mshr_miss_latency::cpu0.data  16152950500                       # number of ReadSharedReq MSHR miss cycles
system.l2.ReadSharedReq_mshr_miss_latency::total  16152950500                       # number of ReadSharedReq MSHR miss cycles
system.l2.demand_mshr_miss_latency::cpu0.data  16171422000                       # number of demand (read+write) MSHR miss cycles
system.l2.demand_mshr_miss_latency::total  16171422000                       # number of demand (read+write) MSHR miss cycles
system.l2.overall_mshr_miss_latency::cpu0.data  16171422000                       # number of overall MSHR miss cycles
system.l2.overall_mshr_miss_latency::total  16171422000                       # number of overall MSHR miss cycles
system.l2.ReadExReq_mshr_miss_rate::cpu0.data     0.232288                       # mshr miss rate for ReadExReq accesses
system.l2.ReadExReq_mshr_miss_rate::total     0.232288                       # mshr miss rate for ReadExReq accesses
system.l2.ReadSharedReq_mshr_miss_rate::cpu0.data     0.714489                       # mshr miss rate for ReadSharedReq accesses
system.l2.ReadSharedReq_mshr_miss_rate::total     0.714489                       # mshr miss rate for ReadSharedReq accesses
system.l2.demand_mshr_miss_rate::cpu0.data     0.712927                       # mshr miss rate for demand accesses
system.l2.demand_mshr_miss_rate::total       0.712927                       # mshr miss rate for demand accesses
system.l2.overall_mshr_miss_rate::cpu0.data     0.712927                       # mshr miss rate for overall accesses
system.l2.overall_mshr_miss_rate::total      0.712927                       # mshr miss rate for overall accesses
system.l2.ReadExReq_avg_mshr_miss_latency::cpu0.data 92357.500000                       # average ReadExReq mshr miss latency
system.l2.ReadExReq_avg_mshr_miss_latency::total 92357.500000                       # average ReadExReq mshr miss latency
system.l2.ReadSharedReq_avg_mshr_miss_latency::cpu0.data 85349.740563                       # average ReadSharedReq mshr miss latency
system.l2.ReadSharedReq_avg_mshr_miss_latency::total 85349.740563                       # average ReadSharedReq mshr miss latency
system.l2.demand_avg_mshr_miss_latency::cpu0.data 85357.138333                       # average overall mshr miss latency
system.l2.demand_avg_mshr_miss_latency::total 85357.138333                       # average overall mshr miss latency
system.l2.overall_avg_mshr_miss_latency::cpu0.data 85357.138333                       # average overall mshr miss latency
system.l2.overall_avg_mshr_miss_latency::total 85357.138333                       # average overall mshr miss latency
system.membus.snoop_filter.tot_requests        378909                       # Total number of requests made to the snoop filter.
system.membus.snoop_filter.hit_single_requests       189457                       # Number of requests hitting in the snoop filter with a single holder of the requested data.
system.membus.snoop_filter.hit_multi_requests            0                       # Number of requests hitting in the snoop filter with multiple (>1) holders of the requested data.
system.membus.snoop_filter.tot_snoops               0                       # Total number of snoops made to the snoop filter.
system.membus.snoop_filter.hit_single_snoops            0                       # Number of snoops hitting in the snoop filter with a single holder of the requested data.
system.membus.snoop_filter.hit_multi_snoops            0                       # Number of snoops hitting in the snoop filter with multiple (>1) holders of the requested data.
system.membus.pwrStateResidencyTicks::UNDEFINED  15267344125                       # Cumulative time (in ticks) in various power states
system.membus.trans_dist::ReadResp             189256                       # Transaction distribution
system.membus.trans_dist::WritebackDirty          292                       # Transaction distribution
system.membus.trans_dist::CleanEvict           189161                       # Transaction distribution
system.membus.trans_dist::ReadExReq               200                       # Transaction distribution
system.membus.trans_dist::ReadExResp              200                       # Transaction distribution
system.membus.trans_dist::ReadSharedReq        189256                       # Transaction distribution
system.membus.pkt_count_system.l2.mem_side::system.mem_ctrls.port       568365                       # Packet count per connected master and slave (bytes)
system.membus.pkt_count_system.l2.mem_side::total       568365                       # Packet count per connected master and slave (bytes)
system.membus.pkt_count::total                 568365                       # Packet count per connected master and slave (bytes)
system.membus.pkt_size_system.l2.mem_side::system.mem_ctrls.port     12143872                       # Cumulative packet size per connected master and slave (bytes)
system.membus.pkt_size_system.l2.mem_side::total     12143872                       # Cumulative packet size per connected master and slave (bytes)
system.membus.pkt_size::total                12143872                       # Cumulative packet size per connected master and slave (bytes)
system.membus.snoops                                0                       # Total snoops (count)
system.membus.snoopTraffic                          0                       # Total snoop traffic (bytes)
system.membus.snoop_fanout::samples            189456                       # Request fanout histogram
system.membus.snoop_fanout::mean                    0                       # Request fanout histogram
system.membus.snoop_fanout::stdev                   0                       # Request fanout histogram
system.membus.snoop_fanout::underflows              0      0.00%      0.00% # Request fanout histogram
system.membus.snoop_fanout::0                  189456    100.00%    100.00% # Request fanout histogram
system.membus.snoop_fanout::1                       0      0.00%    100.00% # Request fanout histogram
system.membus.snoop_fanout::overflows               0      0.00%    100.00% # Request fanout histogram
system.membus.snoop_fanout::min_value               0                       # Request fanout histogram
system.membus.snoop_fanout::max_value               0                       # Request fanout histogram
system.membus.snoop_fanout::total              189456                       # Request fanout histogram
system.membus.reqLayer8.occupancy           445778000                       # Layer occupancy (ticks)
system.membus.reqLayer8.utilization               2.9                       # Layer utilization (%)
system.membus.respLayer1.occupancy         1025286750                       # Layer occupancy (ticks)
system.membus.respLayer1.utilization              6.7                       # Layer utilization (%)
system.tol2bus.snoop_filter.tot_requests       531488                       # Total number of requests made to the snoop filter.
system.tol2bus.snoop_filter.hit_single_requests       265743                       # Number of requests hitting in the snoop filter with a single holder of the requested data.
system.tol2bus.snoop_filter.hit_multi_requests          625                       # Number of requests hitting in the snoop filter with multiple (>1) holders of the requested data.
system.tol2bus.snoop_filter.tot_snoops              3                       # Total number of snoops made to the snoop filter.
system.tol2bus.snoop_filter.hit_single_snoops            3                       # Number of snoops hitting in the snoop filter with a single holder of the requested data.
system.tol2bus.snoop_filter.hit_multi_snoops            0                       # Number of snoops hitting in the snoop filter with multiple (>1) holders of the requested data.
system.tol2bus.pwrStateResidencyTicks::UNDEFINED  15267344125                       # Cumulative time (in ticks) in various power states
system.tol2bus.trans_dist::ReadResp            264883                       # Transaction distribution
system.tol2bus.trans_dist::WritebackDirty         2751                       # Transaction distribution
system.tol2bus.trans_dist::CleanEvict          452449                       # Transaction distribution
system.tol2bus.trans_dist::ReadExReq              861                       # Transaction distribution
system.tol2bus.trans_dist::ReadExResp             861                       # Transaction distribution
system.tol2bus.trans_dist::ReadSharedReq       264883                       # Transaction distribution
system.tol2bus.pkt_count_system.cpu0.dcache.mem_side::system.l2.cpu_side       797232                       # Packet count per connected master and slave (bytes)
system.tol2bus.pkt_count::total                797232                       # Packet count per connected master and slave (bytes)
system.tol2bus.pkt_size_system.cpu0.dcache.mem_side::system.l2.cpu_side     17164992                       # Cumulative packet size per connected master and slave (bytes)
system.tol2bus.pkt_size::total               17164992                       # Cumulative packet size per connected master and slave (bytes)
system.tol2bus.snoops                          189456                       # Total snoops (count)
system.tol2bus.snoopTraffic                     18688                       # Total snoop traffic (bytes)
system.tol2bus.snoop_fanout::samples           455200                       # Request fanout histogram
system.tol2bus.snoop_fanout::mean            0.001377                       # Request fanout histogram
system.tol2bus.snoop_fanout::stdev           0.037088                       # Request fanout histogram
system.tol2bus.snoop_fanout::underflows             0      0.00%      0.00% # Request fanout histogram
system.tol2bus.snoop_fanout::0                 454573     99.86%     99.86% # Request fanout histogram
system.tol2bus.snoop_fanout::1                    627      0.14%    100.00% # Request fanout histogram
system.tol2bus.snoop_fanout::2                      0      0.00%    100.00% # Request fanout histogram
system.tol2bus.snoop_fanout::3                      0      0.00%    100.00% # Request fanout histogram
system.tol2bus.snoop_fanout::4                      0      0.00%    100.00% # Request fanout histogram
system.tol2bus.snoop_fanout::5                      0      0.00%    100.00% # Request fanout histogram
system.tol2bus.snoop_fanout::6                      0      0.00%    100.00% # Request fanout histogram
system.tol2bus.snoop_fanout::7                      0      0.00%    100.00% # Request fanout histogram
system.tol2bus.snoop_fanout::8                      0      0.00%    100.00% # Request fanout histogram
system.tol2bus.snoop_fanout::9                      0      0.00%    100.00% # Request fanout histogram
system.tol2bus.snoop_fanout::10                     0      0.00%    100.00% # Request fanout histogram
system.tol2bus.snoop_fanout::11                     0      0.00%    100.00% # Request fanout histogram
system.tol2bus.snoop_fanout::12                     0      0.00%    100.00% # Request fanout histogram
system.tol2bus.snoop_fanout::13                     0      0.00%    100.00% # Request fanout histogram
system.tol2bus.snoop_fanout::14                     0      0.00%    100.00% # Request fanout histogram
system.tol2bus.snoop_fanout::15                     0      0.00%    100.00% # Request fanout histogram
system.tol2bus.snoop_fanout::16                     0      0.00%    100.00% # Request fanout histogram
system.tol2bus.snoop_fanout::overflows              0      0.00%    100.00% # Request fanout histogram
system.tol2bus.snoop_fanout::min_value              0                       # Request fanout histogram
system.tol2bus.snoop_fanout::max_value              1                       # Request fanout histogram
system.tol2bus.snoop_fanout::total             455200                       # Request fanout histogram
system.tol2bus.reqLayer0.occupancy          268203000                       # Layer occupancy (ticks)
system.tol2bus.reqLayer0.utilization              1.8                       # Layer utilization (%)
system.tol2bus.respLayer1.occupancy         398616000                       # Layer occupancy (ticks)
system.tol2bus.respLayer1.utilization             2.6                       # Layer utilization (%)

---------- End Simulation Statistics   ----------
