
---------- Begin Simulation Statistics ----------
sim_seconds                                  0.015267                       # Number of seconds simulated
sim_ticks                                 15267344125                       # Number of ticks simulated
final_tick                               8198563795125                       # Number of ticks from beginning of simulation (restored from checkpoints and never reset)
sim_freq                                 1000000000000                       # Frequency of simulated ticks
host_inst_rate                               57926911                       # Simulator instruction rate (inst/s)
host_op_rate                                108517722                       # Simulator op (including micro ops) rate (op/s)
host_tick_rate                              138145307                       # Simulator tick rate (ticks/s)
host_mem_usage                                2332528                       # Number of bytes of host memory used
host_seconds                                   110.52                       # Real time elapsed on the host
sim_insts                                  6401881914                       # Number of instructions simulated
sim_ops                                   11993004520                       # Number of ops (including micro ops) simulated
system.voltage_domain.voltage                       1                       # Voltage in Volts
system.clk_domain.clock                          1000                       # Clock period in ticks
system.mem_ctrls.pwrStateResidencyTicks::UNDEFINED  15267344125                       # Cumulative time (in ticks) in various power states
system.mem_ctrls.bytes_read::cpu0.inst            192                       # Number of bytes read from this memory
system.mem_ctrls.bytes_read::cpu0.data        9774912                       # Number of bytes read from this memory
system.mem_ctrls.bytes_read::total            9775104                       # Number of bytes read from this memory
system.mem_ctrls.bytes_inst_read::cpu0.inst          192                       # Number of instructions bytes read from this memory
system.mem_ctrls.bytes_inst_read::total           192                       # Number of instructions bytes read from this memory
system.mem_ctrls.bytes_written::writebacks      7970432                       # Number of bytes written to this memory
system.mem_ctrls.bytes_written::total         7970432                       # Number of bytes written to this memory
system.mem_ctrls.num_reads::cpu0.inst               3                       # Number of read requests responded to by this memory
system.mem_ctrls.num_reads::cpu0.data          152733                       # Number of read requests responded to by this memory
system.mem_ctrls.num_reads::total              152736                       # Number of read requests responded to by this memory
system.mem_ctrls.num_writes::writebacks        124538                       # Number of write requests responded to by this memory
system.mem_ctrls.num_writes::total             124538                       # Number of write requests responded to by this memory
system.mem_ctrls.bw_read::cpu0.inst             12576                       # Total read bandwidth from this memory (bytes/s)
system.mem_ctrls.bw_read::cpu0.data         640249668                       # Total read bandwidth from this memory (bytes/s)
system.mem_ctrls.bw_read::total             640262243                       # Total read bandwidth from this memory (bytes/s)
system.mem_ctrls.bw_inst_read::cpu0.inst        12576                       # Instruction read bandwidth from this memory (bytes/s)
system.mem_ctrls.bw_inst_read::total            12576                       # Instruction read bandwidth from this memory (bytes/s)
system.mem_ctrls.bw_write::writebacks       522057532                       # Write bandwidth from this memory (bytes/s)
system.mem_ctrls.bw_write::total            522057532                       # Write bandwidth from this memory (bytes/s)
system.mem_ctrls.bw_total::writebacks       522057532                       # Total bandwidth to/from this memory (bytes/s)
system.mem_ctrls.bw_total::cpu0.inst            12576                       # Total bandwidth to/from this memory (bytes/s)
system.mem_ctrls.bw_total::cpu0.data        640249668                       # Total bandwidth to/from this memory (bytes/s)
system.mem_ctrls.bw_total::total           1162319776                       # Total bandwidth to/from this memory (bytes/s)
system.mem_ctrls.readReqs                      152737                       # Number of read requests accepted
system.mem_ctrls.writeReqs                     124538                       # Number of write requests accepted
system.mem_ctrls.readBursts                    152737                       # Number of DRAM read bursts, including those serviced by the write queue
system.mem_ctrls.writeBursts                   124538                       # Number of DRAM write bursts, including those merged in the write queue
system.mem_ctrls.bytesReadDRAM                9773376                       # Total number of bytes read from DRAM
system.mem_ctrls.bytesReadWrQ                    1792                       # Total number of bytes read from write queue
system.mem_ctrls.bytesWritten                 7970560                       # Total number of bytes written to DRAM
system.mem_ctrls.bytesReadSys                 9775168                       # Total read bytes from the system interface side
system.mem_ctrls.bytesWrittenSys              7970432                       # Total written bytes from the system interface side
system.mem_ctrls.servicedByWrQ                     28                       # Number of DRAM read bursts serviced by the write queue
system.mem_ctrls.mergedWrBursts                     0                       # Number of DRAM write bursts merged with an existing one
system.mem_ctrls.neitherReadNorWriteReqs            0                       # Number of requests that are neither read nor write
system.mem_ctrls.perBankRdBursts::0              9600                       # Per bank write bursts
system.mem_ctrls.perBankRdBursts::1              9590                       # Per bank write bursts
system.mem_ctrls.perBankRdBursts::2              9600                       # Per bank write bursts
system.mem_ctrls.perBankRdBursts::3              9602                       # Per bank write bursts
system.mem_ctrls.perBankRdBursts::4              9601                       # Per bank write bursts
system.mem_ctrls.perBankRdBursts::5              9443                       # Per bank write bursts
system.mem_ctrls.perBankRdBursts::6              9475                       # Per bank write bursts
system.mem_ctrls.perBankRdBursts::7              9483                       # Per bank write bursts
system.mem_ctrls.perBankRdBursts::8              9493                       # Per bank write bursts
system.mem_ctrls.perBankRdBursts::9              9472                       # Per bank write bursts
system.mem_ctrls.perBankRdBursts::10             9472                       # Per bank write bursts
system.mem_ctrls.perBankRdBursts::11             9475                       # Per bank write bursts
system.mem_ctrls.perBankRdBursts::12             9598                       # Per bank write bursts
system.mem_ctrls.perBankRdBursts::13             9601                       # Per bank write bursts
system.mem_ctrls.perBankRdBursts::14             9602                       # Per bank write bursts
system.mem_ctrls.perBankRdBursts::15             9602                       # Per bank write bursts
system.mem_ctrls.perBankWrBursts::0              7791                       # Per bank write bursts
system.mem_ctrls.perBankWrBursts::1              7782                       # Per bank write bursts
system.mem_ctrls.perBankWrBursts::2              7788                       # Per bank write bursts
system.mem_ctrls.perBankWrBursts::3              7796                       # Per bank write bursts
system.mem_ctrls.perBankWrBursts::4              7785                       # Per bank write bursts
system.mem_ctrls.perBankWrBursts::5              7727                       # Per bank write bursts
system.mem_ctrls.perBankWrBursts::6              7801                       # Per bank write bursts
system.mem_ctrls.perBankWrBursts::7              7806                       # Per bank write bursts
system.mem_ctrls.perBankWrBursts::8              7830                       # Per bank write bursts
system.mem_ctrls.perBankWrBursts::9              7795                       # Per bank write bursts
system.mem_ctrls.perBankWrBursts::10             7731                       # Per bank write bursts
system.mem_ctrls.perBankWrBursts::11             7699                       # Per bank write bursts
system.mem_ctrls.perBankWrBursts::12             7806                       # Per bank write bursts
system.mem_ctrls.perBankWrBursts::13             7793                       # Per bank write bursts
system.mem_ctrls.perBankWrBursts::14             7806                       # Per bank write bursts
system.mem_ctrls.perBankWrBursts::15             7804                       # Per bank write bursts
system.mem_ctrls.numRdRetry                         0                       # Number of times read queue was full causing retry
system.mem_ctrls.numWrRetry                         0                       # Number of times write queue was full causing retry
system.mem_ctrls.totGap                   15267395000                       # Total gap between requests
system.mem_ctrls.readPktSize::0                     0                       # Read request sizes (log2)
system.mem_ctrls.readPktSize::1                     0                       # Read request sizes (log2)
system.mem_ctrls.readPktSize::2                     0                       # Read request sizes (log2)
system.mem_ctrls.readPktSize::3                     0                       # Read request sizes (log2)
system.mem_ctrls.readPktSize::4                     0                       # Read request sizes (log2)
system.mem_ctrls.readPktSize::5                     0                       # Read request sizes (log2)
system.mem_ctrls.readPktSize::6                152737                       # Read request sizes (log2)
system.mem_ctrls.writePktSize::0                    0                       # Write request sizes (log2)
system.mem_ctrls.writePktSize::1                    0                       # Write request sizes (log2)
system.mem_ctrls.writePktSize::2                    0                       # Write request sizes (log2)
system.mem_ctrls.writePktSize::3                    0                       # Write request sizes (log2)
system.mem_ctrls.writePktSize::4                    0                       # Write request sizes (log2)
system.mem_ctrls.writePktSize::5                    0                       # Write request sizes (log2)
system.mem_ctrls.writePktSize::6               124538                       # Write request sizes (log2)
system.mem_ctrls.rdQLenPdf::0                  141932                       # What read queue length does an incoming req see
system.mem_ctrls.rdQLenPdf::1                   10666                       # What read queue length does an incoming req see
system.mem_ctrls.rdQLenPdf::2                     108                       # What read queue length does an incoming req see
system.mem_ctrls.rdQLenPdf::3                       2                       # What read queue length does an incoming req see
system.mem_ctrls.rdQLenPdf::4                       1                       # What read queue length does an incoming req see
system.mem_ctrls.rdQLenPdf::5                       0                       # What read queue length does an incoming req see
system.mem_ctrls.rdQLenPdf::6                       0                       # What read queue length does an incoming req see
system.mem_ctrls.rdQLenPdf::7                       0                       # What read queue length does an incoming req see
system.mem_ctrls.rdQLenPdf::8                       0                       # What read queue length does an incoming req see
system.mem_ctrls.rdQLenPdf::9                       0                       # What read queue length does an incoming req see
system.mem_ctrls.rdQLenPdf::10                      0                       # What read queue length does an incoming req see
system.mem_ctrls.rdQLenPdf::11                      0                       # What read queue length does an incoming req see
system.mem_ctrls.rdQLenPdf::12                      0                       # What read queue length does an incoming req see
system.mem_ctrls.rdQLenPdf::13                      0                       # What read queue length does an incoming req see
system.mem_ctrls.rdQLenPdf::14                      0                       # What read queue length does an incoming req see
system.mem_ctrls.rdQLenPdf::15                      0                       # What read queue length does an incoming req see
system.mem_ctrls.rdQLenPdf::16                      0                       # What read queue length does an incoming req see
system.mem_ctrls.rdQLenPdf::17                      0                       # What read queue length does an incoming req see
system.mem_ctrls.rdQLenPdf::18                      0                       # What read queue length does an incoming req see
system.mem_ctrls.rdQLenPdf::19                      0                       # What read queue length does an incoming req see
system.mem_ctrls.rdQLenPdf::20                      0                       # What read queue length does an incoming req see
system.mem_ctrls.rdQLenPdf::21                      0                       # What read queue length does an incoming req see
system.mem_ctrls.rdQLenPdf::22                      0                       # What read queue length does an incoming req see
system.mem_ctrls.rdQLenPdf::23                      0                       # What read queue length does an incoming req see
system.mem_ctrls.rdQLenPdf::24                      0                       # What read queue length does an incoming req see
system.mem_ctrls.rdQLenPdf::25                      0                       # What read queue length does an incoming req see
system.mem_ctrls.rdQLenPdf::26                      0                       # What read queue length does an incoming req see
system.mem_ctrls.rdQLenPdf::27                      0                       # What read queue length does an incoming req see
system.mem_ctrls.rdQLenPdf::28                      0                       # What read queue length does an incoming req see
system.mem_ctrls.rdQLenPdf::29                      0                       # What read queue length does an incoming req see
system.mem_ctrls.rdQLenPdf::30                      0                       # What read queue length does an incoming req see
system.mem_ctrls.rdQLenPdf::31                      0                       # What read queue length does an incoming req see
system.mem_ctrls.wrQLenPdf::0                       0                       # What write queue length does an incoming req see
system.mem_ctrls.wrQLenPdf::1                       0                       # What write queue length does an incoming req see
system.mem_ctrls.wrQLenPdf::2                       0                       # What write queue length does an incoming req see
system.mem_ctrls.wrQLenPdf::3                       0                       # What write queue length does an incoming req see
system.mem_ctrls.wrQLenPdf::4                       0                       # What write queue length does an incoming req see
system.mem_ctrls.wrQLenPdf::5                       0                       # What write queue length does an incoming req see
system.mem_ctrls.wrQLenPdf::6                       0                       # What write queue length does an incoming req see
system.mem_ctrls.wrQLenPdf::7                       0                       # What write queue length does an incoming req see
system.mem_ctrls.wrQLenPdf::8                       0                       # What write queue length does an incoming req see
system.mem_ctrls.wrQLenPdf::9                       0                       # What write queue length does an incoming req see
system.mem_ctrls.wrQLenPdf::10                      0                       # What write queue length does an incoming req see
system.mem_ctrls.wrQLenPdf::11                      0                       # What write queue length does an incoming req see
system.mem_ctrls.wrQLenPdf::12                      0                       # What write queue length does an incoming req see
system.mem_ctrls.wrQLenPdf::13                      0                       # What write queue length does an incoming req see
system.mem_ctrls.wrQLenPdf::14                      0                       # What write queue length does an incoming req see
system.mem_ctrls.wrQLenPdf::15                      5                       # What write queue length does an incoming req see
system.mem_ctrls.wrQLenPdf::16                     15                       # What write queue length does an incoming req see
system.mem_ctrls.wrQLenPdf::17                   7187                       # What write queue length does an incoming req see
system.mem_ctrls.wrQLenPdf::18                   7756                       # What write queue length does an incoming req see
system.mem_ctrls.wrQLenPdf::19                   7766                       # What write queue length does an incoming req see
system.mem_ctrls.wrQLenPdf::20                   7773                       # What write queue length does an incoming req see
system.mem_ctrls.wrQLenPdf::21                   7777                       # What write queue length does an incoming req see
system.mem_ctrls.wrQLenPdf::22                   7779                       # What write queue length does an incoming req see
system.mem_ctrls.wrQLenPdf::23                   7782                       # What write queue length does an incoming req see
system.mem_ctrls.wrQLenPdf::24                   7795                       # What write queue length does an incoming req see
system.mem_ctrls.wrQLenPdf::25                   7789                       # What write queue length does an incoming req see
system.mem_ctrls.wrQLenPdf::26                   7806                       # What write queue length does an incoming req see
system.mem_ctrls.wrQLenPdf::27                   8070                       # What write queue length does an incoming req see
system.mem_ctrls.wrQLenPdf::28                   7797                       # What write queue length does an incoming req see
system.mem_ctrls.wrQLenPdf::29                   7803                       # What write queue length does an incoming req see
system.mem_ctrls.wrQLenPdf::30                   7885                       # What write queue length does an incoming req see
system.mem_ctrls.wrQLenPdf::31                   7802                       # What write queue length does an incoming req see
system.mem_ctrls.wrQLenPdf::32                   7885                       # What write queue length does an incoming req see
system.mem_ctrls.wrQLenPdf::33                     27                       # What write queue length does an incoming req see
system.mem_ctrls.wrQLenPdf::34                     13                       # What write queue length does an incoming req see
system.mem_ctrls.wrQLenPdf::35                     11                       # What write queue length does an incoming req see
system.mem_ctrls.wrQLenPdf::36                     10                       # What write queue length does an incoming req see
system.mem_ctrls.wrQLenPdf::37                      4                       # What write queue length does an incoming req see
system.mem_ctrls.wrQLenPdf::38                      1                       # What write queue length does an incoming req see
system.mem_ctrls.wrQLenPdf::39                      0                       # What write queue length does an incoming req see
system.mem_ctrls.wrQLenPdf::40                      0                       # What write queue length does an incoming req see
system.mem_ctrls.wrQLenPdf::41                      0                       # What write queue length does an incoming req see
system.mem_ctrls.wrQLenPdf::42                      0                       # What write queue length does an incoming req see
system.mem_ctrls.wrQLenPdf::43                      0                       # What write queue length does an incoming req see
system.mem_ctrls.wrQLenPdf::44                      0                       # What write queue length does an incoming req see
system.mem_ctrls.wrQLenPdf::45                      0                       # What write queue length does an incoming req see
system.mem_ctrls.wrQLenPdf::46                      0                       # What write queue length does an incoming req see
system.mem_ctrls.wrQLenPdf::47                      0                       # What write queue length does an incoming req see
system.mem_ctrls.wrQLenPdf::48                      0                       # What write queue length does an incoming req see
system.mem_ctrls.wrQLenPdf::49                      0                       # What write queue length does an incoming req see
system.mem_ctrls.wrQLenPdf::50                      0                       # What write queue length does an incoming req see
system.mem_ctrls.wrQLenPdf::51                      0                       # What write queue length does an incoming req see
system.mem_ctrls.wrQLenPdf::52                      0                       # What write queue length does an incoming req see
system.mem_ctrls.wrQLenPdf::53                      0                       # What write queue length does an incoming req see
system.mem_ctrls.wrQLenPdf::54                      0                       # What write queue length does an incoming req see
system.mem_ctrls.wrQLenPdf::55                      0                       # What write queue length does an incoming req see
system.mem_ctrls.wrQLenPdf::56                      0                       # What write queue length does an incoming req see
system.mem_ctrls.wrQLenPdf::57                      0                       # What write queue length does an incoming req see
system.mem_ctrls.wrQLenPdf::58                      0                       # What write queue length does an incoming req see
system.mem_ctrls.wrQLenPdf::59                      0                       # What write queue length does an incoming req see
system.mem_ctrls.wrQLenPdf::60                      0                       # What write queue length does an incoming req see
system.mem_ctrls.wrQLenPdf::61                      0                       # What write queue length does an incoming req see
system.mem_ctrls.wrQLenPdf::62                      0                       # What write queue length does an incoming req see
system.mem_ctrls.wrQLenPdf::63                      0                       # What write queue length does an incoming req see
system.mem_ctrls.bytesPerActivate::samples        24697                       # Bytes accessed per row activation
system.mem_ctrls.bytesPerActivate::mean    718.504110                       # Bytes accessed per row activation
system.mem_ctrls.bytesPerActivate::gmean   543.353349                       # Bytes accessed per row activation
system.mem_ctrls.bytesPerActivate::stdev   366.949517                       # Bytes accessed per row activation
system.mem_ctrls.bytesPerActivate::0-127         2418      9.79%      9.79% # Bytes accessed per row activation
system.mem_ctrls.bytesPerActivate::128-255         2299      9.31%     19.10% # Bytes accessed per row activation
system.mem_ctrls.bytesPerActivate::256-383         1349      5.46%     24.56% # Bytes accessed per row activation
system.mem_ctrls.bytesPerActivate::384-511         1118      4.53%     29.09% # Bytes accessed per row activation
system.mem_ctrls.bytesPerActivate::512-639         1116      4.52%     33.61% # Bytes accessed per row activation
system.mem_ctrls.bytesPerActivate::640-767         1269      5.14%     38.75% # Bytes accessed per row activation
system.mem_ctrls.bytesPerActivate::768-895         1911      7.74%     46.48% # Bytes accessed per row activation
system.mem_ctrls.bytesPerActivate::896-1023         1720      6.96%     53.45% # Bytes accessed per row activation
system.mem_ctrls.bytesPerActivate::1024-1151        11497     46.55%    100.00% # Bytes accessed per row activation
system.mem_ctrls.bytesPerActivate::total        24697                       # Bytes accessed per row activation
system.mem_ctrls.rdPerTurnAround::samples         7781                       # Reads before turning the bus around for writes
system.mem_ctrls.rdPerTurnAround::mean      19.626141                       # Reads before turning the bus around for writes
system.mem_ctrls.rdPerTurnAround::gmean     17.124170                       # Reads before turning the bus around for writes
system.mem_ctrls.rdPerTurnAround::stdev    113.684641                       # Reads before turning the bus around for writes
system.mem_ctrls.rdPerTurnAround::0-511          7777     99.95%     99.95% # Reads before turning the bus around for writes
system.mem_ctrls.rdPerTurnAround::512-1023            2      0.03%     99.97% # Reads before turning the bus around for writes
system.mem_ctrls.rdPerTurnAround::1024-1535            1      0.01%     99.99% # Reads before turning the bus around for writes
system.mem_ctrls.rdPerTurnAround::9728-10239            1      0.01%    100.00% # Reads before turning the bus around for writes
system.mem_ctrls.rdPerTurnAround::total          7781                       # Reads before turning the bus around for writes
system.mem_ctrls.wrPerTurnAround::samples         7781                       # Writes before turning the bus around for reads
system.mem_ctrls.wrPerTurnAround::mean      16.005655                       # Writes before turning the bus around for reads
system.mem_ctrls.wrPerTurnAround::gmean     16.005279                       # Writes before turning the bus around for reads
system.mem_ctrls.wrPerTurnAround::stdev      0.115480                       # Writes before turning the bus around for reads
system.mem_ctrls.wrPerTurnAround::16             7759     99.72%     99.72% # Writes before turning the bus around for reads
system.mem_ctrls.wrPerTurnAround::17                7      0.09%     99.81% # Writes before turning the bus around for reads
system.mem_ctrls.wrPerTurnAround::18                9      0.12%     99.92% # Writes before turning the bus around for reads
system.mem_ctrls.wrPerTurnAround::19                5      0.06%     99.99% # Writes before turning the bus around for reads
system.mem_ctrls.wrPerTurnAround::20                1      0.01%    100.00% # Writes before turning the bus around for reads
system.mem_ctrls.wrPerTurnAround::total          7781                       # Writes before turning the bus around for reads
system.mem_ctrls.totQLat                   2668997000                       # Total ticks spent queuing
system.mem_ctrls.totMemAccLat              5532290750                       # Total ticks spent from burst creation until serviced by the DRAM
system.mem_ctrls.totBusLat                  763545000                       # Total ticks spent in databus transfers
system.mem_ctrls.avgQLat                     17477.67                       # Average queueing delay per DRAM burst
system.mem_ctrls.avgBusLat                    5000.00                       # Average bus latency per DRAM burst
system.mem_ctrls.avgMemAccLat                36227.67                       # Average memory access latency per DRAM burst
system.mem_ctrls.avgRdBW                       640.15                       # Average DRAM read bandwidth in MiByte/s
system.mem_ctrls.avgWrBW                       522.07                       # Average achieved write bandwidth in MiByte/s
system.mem_ctrls.avgRdBWSys                    640.27                       # Average system read bandwidth in MiByte/s
system.mem_ctrls.avgWrBWSys                    522.06                       # Average system write bandwidth in MiByte/s
system.mem_ctrls.peakBW                      12800.00                       # Theoretical peak bandwidth in MiByte/s
system.mem_ctrls.busUtil                         9.08                       # Data bus utilization in percentage
system.mem_ctrls.busUtilRead                     5.00                       # Data bus utilization in percentage for reads
system.mem_ctrls.busUtilWrite                    4.08                       # Data bus utilization in percentage for writes
system.mem_ctrls.avgRdQLen                       1.13                       # Average read queue length when enqueuing
system.mem_ctrls.avgWrQLen                      26.23                       # Average write queue length when enqueuing
system.mem_ctrls.readRowHits                   137751                       # Number of row buffer hits during reads
system.mem_ctrls.writeRowHits                  114803                       # Number of row buffer hits during writes
system.mem_ctrls.readRowHitRate                 90.20                       # Row buffer hit rate for reads
system.mem_ctrls.writeRowHitRate                92.18                       # Row buffer hit rate for writes
system.mem_ctrls.avgGap                      55062.28                       # Average gap between requests
system.mem_ctrls.pageHitRate                    91.09                       # Row buffer hit rate, read and write combined
system.mem_ctrls_0.actEnergy                 87943380                       # Energy for activate commands per rank (pJ)
system.mem_ctrls_0.preEnergy                 46743015                       # Energy for precharge commands per rank (pJ)
system.mem_ctrls_0.readEnergy               545446020                       # Energy for read commands per rank (pJ)
system.mem_ctrls_0.writeEnergy              325080720                       # Energy for write commands per rank (pJ)
system.mem_ctrls_0.refreshEnergy         820544400.000000                       # Energy for refresh commands per rank (pJ)
system.mem_ctrls_0.actBackEnergy           1416699660                       # Energy for active background per rank (pJ)
system.mem_ctrls_0.preBackEnergy             57980160                       # Energy for precharge background per rank (pJ)
system.mem_ctrls_0.actPowerDownEnergy      2606385420                       # Energy for active power-down per rank (pJ)
system.mem_ctrls_0.prePowerDownEnergy       302983680                       # Energy for precharge power-down per rank (pJ)
system.mem_ctrls_0.selfRefreshEnergy       1369192080                       # Energy for self refresh per rank (pJ)
system.mem_ctrls_0.totalEnergy             7578998535                       # Total energy per rank (pJ)
system.mem_ctrls_0.averagePower            496.418923                       # Core power per rank (mW)
system.mem_ctrls_0.totalIdleTime          12009459500                       # Total Idle time Per DRAM Rank
system.mem_ctrls_0.memoryStateTime::IDLE     41538000                       # Time in different power states
system.mem_ctrls_0.memoryStateTime::REF     347730000                       # Time in different power states
system.mem_ctrls_0.memoryStateTime::SREF   5504768750                       # Time in different power states
system.mem_ctrls_0.memoryStateTime::PRE_PDN    788976250                       # Time in different power states
system.mem_ctrls_0.memoryStateTime::ACT    2868616625                       # Time in different power states
system.mem_ctrls_0.memoryStateTime::ACT_PDN   5715714500                       # Time in different power states
system.mem_ctrls_1.actEnergy                 88378920                       # Energy for activate commands per rank (pJ)
system.mem_ctrls_1.preEnergy                 46982100                       # Energy for precharge commands per rank (pJ)
system.mem_ctrls_1.readEnergy               544889100                       # Energy for read commands per rank (pJ)
system.mem_ctrls_1.writeEnergy              325018080                       # Energy for write commands per rank (pJ)
system.mem_ctrls_1.refreshEnergy         823617600.000000                       # Energy for refresh commands per rank (pJ)
system.mem_ctrls_1.actBackEnergy           1429860390                       # Energy for active background per rank (pJ)
system.mem_ctrls_1.preBackEnergy             59359200                       # Energy for precharge background per rank (pJ)
system.mem_ctrls_1.actPowerDownEnergy      2588315850                       # Energy for active power-down per rank (pJ)
system.mem_ctrls_1.prePowerDownEnergy       307983360                       # Energy for precharge power-down per rank (pJ)
system.mem_ctrls_1.selfRefreshEnergy       1370550180                       # Energy for self refresh per rank (pJ)
system.mem_ctrls_1.totalEnergy             7585181670                       # Total energy per rank (pJ)
system.mem_ctrls_1.averagePower            496.823914                       # Core power per rank (mW)
system.mem_ctrls_1.totalIdleTime          11965659000                       # Total Idle time Per DRAM Rank
system.mem_ctrls_1.memoryStateTime::IDLE     43460750                       # Time in different power states
system.mem_ctrls_1.memoryStateTime::REF     349024000                       # Time in different power states
system.mem_ctrls_1.memoryStateTime::SREF   5498429875                       # Time in different power states
system.mem_ctrls_1.memoryStateTime::PRE_PDN    802026750                       # Time in different power states
system.mem_ctrls_1.memoryStateTime::ACT    2898353750                       # Time in different power states
system.mem_ctrls_1.memoryStateTime::ACT_PDN   5676049000                       # Time in different power states
system.pwrStateResidencyTicks::UNDEFINED  15267344125                       # Cumulative time (in ticks) in various power states
system.cpu0.branchPred.lookups                3995649                       # Number of BP lookups
system.cpu0.branchPred.condPredicted          3995649                       # Number of conditional branches predicted
system.cpu0.branchPred.condIncorrect            39657                       # Number of conditional branches incorrect
system.cpu0.branchPred.BTBLookups             3341559                       # Number of BTB lookups
system.cpu0.branchPred.BTBHits                      0                       # Number of BTB hits
system.cpu0.branchPred.BTBCorrect                   0                       # Number of correct BTB predictions (this stat may not work properly.
system.cpu0.branchPred.BTBHitPct             0.000000                       # BTB Hit Percentage
system.cpu0.branchPred.usedRAS                 103176                       # Number of times the RAS was used to get a target.
system.cpu0.branchPred.RASInCorrect                27                       # Number of incorrect RAS predictions.
system.cpu0.branchPred.indirectLookups        3341559                       # Number of indirect predictor lookups.
system.cpu0.branchPred.indirectHits           1707672                       # Number of indirect target hits.
system.cpu0.branchPred.indirectMisses         1633887                       # Number of indirect misses.
system.cpu0.branchPredindirectMispredicted         1820                       # Number of mispredicted indirect branches.
system.cpu_voltage_domain.voltage                   1                       # Voltage in Volts
system.cpu_clk_domain.clock                       500                       # Clock period in ticks
system.cpu0.dtb.walker.pwrStateResidencyTicks::UNDEFINED  15267344125                       # Cumulative time (in ticks) in various power states
system.cpu0.dtb.rdAccesses                    4637036                       # TLB accesses on read requests
system.cpu0.dtb.wrAccesses                    2935241                       # TLB accesses on write requests
system.cpu0.dtb.rdMisses                        33130                       # TLB misses on read requests
system.cpu0.dtb.wrMisses                        29958                       # TLB misses on write requests
system.cpu0.apic_clk_domain.clock                8000                       # Clock period in ticks
system.cpu0.interrupts.pwrStateResidencyTicks::UNDEFINED  15267344125                       # Cumulative time (in ticks) in various power states
system.cpu0.itb.walker.pwrStateResidencyTicks::UNDEFINED  15267344125                       # Cumulative time (in ticks) in various power states
system.cpu0.itb.rdAccesses                          0                       # TLB accesses on read requests
system.cpu0.itb.wrAccesses                    2547318                       # TLB accesses on write requests
system.cpu0.itb.rdMisses                            0                       # TLB misses on read requests
system.cpu0.itb.wrMisses                            0                       # TLB misses on write requests
system.cpu0.workload.numSyscalls                    0                       # Number of system calls
system.cpu0.pwrStateResidencyTicks::ON    15267344125                       # Cumulative time (in ticks) in various power states
system.cpu0.numCycles                        30534688                       # number of cpu cycles simulated
system.cpu0.numWorkItemsStarted                     0                       # number of work items this cpu started
system.cpu0.numWorkItemsCompleted                   0                       # number of work items this cpu completed
system.cpu0.fetch.icacheStallCycles           2564998                       # Number of cycles fetch is stalled on an Icache miss
system.cpu0.fetch.Insts                      17927544                       # Number of instructions fetch has processed
system.cpu0.fetch.Branches                    3995649                       # Number of branches that fetch encountered
system.cpu0.fetch.predictedBranches           1810848                       # Number of branches that fetch has predicted taken
system.cpu0.fetch.Cycles                     27929854                       # Number of cycles fetch has run and was not squashing or blocked
system.cpu0.fetch.SquashCycles                  79396                       # Number of cycles fetch has spent squashing
system.cpu0.fetch.PendingQuiesceStallCycles           85                       # Number of stall cycles due to pending quiesce instructions
system.cpu0.fetch.CacheLines                  2547318                       # Number of cache lines fetched
system.cpu0.fetch.IcacheSquashes                12145                       # Number of outstanding Icache misses that were squashed
system.cpu0.fetch.rateDist::samples          30534635                       # Number of instructions fetched each cycle (Total)
system.cpu0.fetch.rateDist::mean             1.097648                       # Number of instructions fetched each cycle (Total)
system.cpu0.fetch.rateDist::stdev            2.507371                       # Number of instructions fetched each cycle (Total)
system.cpu0.fetch.rateDist::underflows              0      0.00%      0.00% # Number of instructions fetched each cycle (Total)
system.cpu0.fetch.rateDist::0                25013923     81.92%     81.92% # Number of instructions fetched each cycle (Total)
system.cpu0.fetch.rateDist::1                  186564      0.61%     82.53% # Number of instructions fetched each cycle (Total)
system.cpu0.fetch.rateDist::2                  145893      0.48%     83.01% # Number of instructions fetched each cycle (Total)
system.cpu0.fetch.rateDist::3                  384129      1.26%     84.27% # Number of instructions fetched each cycle (Total)
system.cpu0.fetch.rateDist::4                  897808      2.94%     87.21% # Number of instructions fetched each cycle (Total)
system.cpu0.fetch.rateDist::5                  592977      1.94%     89.15% # Number of instructions fetched each cycle (Total)
system.cpu0.fetch.rateDist::6                  473244      1.55%     90.70% # Number of instructions fetched each cycle (Total)
system.cpu0.fetch.rateDist::7                  230799      0.76%     91.45% # Number of instructions fetched each cycle (Total)
system.cpu0.fetch.rateDist::8                 2609298      8.55%    100.00% # Number of instructions fetched each cycle (Total)
system.cpu0.fetch.rateDist::overflows               0      0.00%    100.00% # Number of instructions fetched each cycle (Total)
system.cpu0.fetch.rateDist::min_value               0                       # Number of instructions fetched each cycle (Total)
system.cpu0.fetch.rateDist::max_value               8                       # Number of instructions fetched each cycle (Total)
system.cpu0.fetch.rateDist::total            30534635                       # Number of instructions fetched each cycle (Total)
system.cpu0.fetch.branchRate                 0.130856                       # Number of branch fetches per cycle
system.cpu0.fetch.rate                       0.587121                       # Number of inst fetches per cycle
system.cpu0.decode.IdleCycles                 1650034                       # Number of cycles decode is idle
system.cpu0.decode.BlockedCycles             24059718                       # Number of cycles decode is blocked
system.cpu0.decode.RunCycles                  3985524                       # Number of cycles decode is running
system.cpu0.decode.UnblockCycles               799661                       # Number of cycles decode is unblocking
system.cpu0.decode.SquashCycles                 39698                       # Number of cycles decode is squashing
system.cpu0.decode.DecodedInsts              32943373                       # Number of instructions handled by decode
system.cpu0.rename.SquashCycles                 39698                       # Number of cycles rename is squashing
system.cpu0.rename.IdleCycles                 1971931                       # Number of cycles rename is idle
system.cpu0.rename.BlockCycles               22264303                       # Number of cycles rename is blocking
system.cpu0.rename.serializeStallCycles         23896                       # count of cycles rename stalled for serializing inst
system.cpu0.rename.RunCycles                  4401616                       # Number of cycles rename is running
system.cpu0.rename.UnblockCycles              1833191                       # Number of cycles rename is unblocking
system.cpu0.rename.RenamedInsts              32693663                       # Number of instructions processed by rename
system.cpu0.rename.ROBFullEvents               186246                       # Number of times rename has blocked due to ROB full
system.cpu0.rename.IQFullEvents               1479332                       # Number of times rename has blocked due to IQ full
system.cpu0.rename.LQFullEvents                     5                       # Number of times rename has blocked due to LQ full
system.cpu0.rename.RenamedOperands           37072445                       # Number of destination operands rename has renamed
system.cpu0.rename.RenameLookups             87732323                       # Number of register rename lookups that rename has made
system.cpu0.rename.int_rename_lookups        49511914                       # Number of integer rename lookups
system.cpu0.rename.fp_rename_lookups              551                       # Number of floating rename lookups
system.cpu0.rename.CommittedMaps             32240061                       # Number of HB maps that are committed
system.cpu0.rename.UndoneMaps                 4832464                       # Number of HB maps that are undone due to squashing
system.cpu0.rename.serializingInsts               203                       # count of serializing insts renamed
system.cpu0.rename.tempSerializingInsts           203                       # count of temporary serializing insts renamed
system.cpu0.rename.skidInsts                  4558837                       # count of insts added to the skid buffer
system.cpu0.memDep0.insertedLoads             4978203                       # Number of loads inserted to the mem dependence unit.
system.cpu0.memDep0.insertedStores            3117093                       # Number of stores inserted to the mem dependence unit.
system.cpu0.memDep0.conflictingLoads           330237                       # Number of conflicting loads.
system.cpu0.memDep0.conflictingStores            1702                       # Number of conflicting stores.
system.cpu0.iq.iqInstsAdded                  32259558                       # Number of instructions added to the IQ (excludes non-spec)
system.cpu0.iq.iqNonSpecInstsAdded                345                       # Number of non-speculative instructions added to the IQ
system.cpu0.iq.iqInstsIssued                 30992630                       # Number of instructions issued
system.cpu0.iq.iqSquashedInstsIssued            12455                       # Number of squashed instructions issued
system.cpu0.iq.iqSquashedInstsExamined        3812706                       # Number of squashed instructions iterated over during squash; mainly for profiling
system.cpu0.iq.iqSquashedOperandsExamined      5826845                       # Number of squashed operands that are examined and possibly removed from graph
system.cpu0.iq.iqSquashedNonSpecRemoved           342                       # Number of squashed non-spec instructions that were removed
system.cpu0.iq.issued_per_cycle::samples     30534635                       # Number of insts issued each cycle
system.cpu0.iq.issued_per_cycle::mean        1.014999                       # Number of insts issued each cycle
system.cpu0.iq.issued_per_cycle::stdev       2.079918                       # Number of insts issued each cycle
system.cpu0.iq.issued_per_cycle::underflows            0      0.00%      0.00% # Number of insts issued each cycle
system.cpu0.iq.issued_per_cycle::0           22653207     74.19%     74.19% # Number of insts issued each cycle
system.cpu0.iq.issued_per_cycle::1            1310964      4.29%     78.48% # Number of insts issued each cycle
system.cpu0.iq.issued_per_cycle::2            1601105      5.24%     83.73% # Number of insts issued each cycle
system.cpu0.iq.issued_per_cycle::3            1057718      3.46%     87.19% # Number of insts issued each cycle
system.cpu0.iq.issued_per_cycle::4             743081      2.43%     89.62% # Number of insts issued each cycle
system.cpu0.iq.issued_per_cycle::5             874510      2.86%     92.49% # Number of insts issued each cycle
system.cpu0.iq.issued_per_cycle::6             805321      2.64%     95.12% # Number of insts issued each cycle
system.cpu0.iq.issued_per_cycle::7             780330      2.56%     97.68% # Number of insts issued each cycle
system.cpu0.iq.issued_per_cycle::8             708399      2.32%    100.00% # Number of insts issued each cycle
system.cpu0.iq.issued_per_cycle::overflows            0      0.00%    100.00% # Number of insts issued each cycle
system.cpu0.iq.issued_per_cycle::min_value            0                       # Number of insts issued each cycle
system.cpu0.iq.issued_per_cycle::max_value            8                       # Number of insts issued each cycle
system.cpu0.iq.issued_per_cycle::total       30534635                       # Number of insts issued each cycle
system.cpu0.iq.fu_full::No_OpClass                  0      0.00%      0.00% # attempts to use FU when none available
system.cpu0.iq.fu_full::IntAlu                 600250     60.75%     60.75% # attempts to use FU when none available
system.cpu0.iq.fu_full::IntMult                     0      0.00%     60.75% # attempts to use FU when none available
system.cpu0.iq.fu_full::IntDiv                      0      0.00%     60.75% # attempts to use FU when none available
system.cpu0.iq.fu_full::FloatAdd                    0      0.00%     60.75% # attempts to use FU when none available
system.cpu0.iq.fu_full::FloatCmp                    0      0.00%     60.75% # attempts to use FU when none available
system.cpu0.iq.fu_full::FloatCvt                    0      0.00%     60.75% # attempts to use FU when none available
system.cpu0.iq.fu_full::FloatMult                   0      0.00%     60.75% # attempts to use FU when none available
system.cpu0.iq.fu_full::FloatMultAcc                0      0.00%     60.75% # attempts to use FU when none available
system.cpu0.iq.fu_full::FloatDiv                    0      0.00%     60.75% # attempts to use FU when none available
system.cpu0.iq.fu_full::FloatMisc                   0      0.00%     60.75% # attempts to use FU when none available
system.cpu0.iq.fu_full::FloatSqrt                   0      0.00%     60.75% # attempts to use FU when none available
system.cpu0.iq.fu_full::SimdAdd                     0      0.00%     60.75% # attempts to use FU when none available
system.cpu0.iq.fu_full::SimdAddAcc                  0      0.00%     60.75% # attempts to use FU when none available
system.cpu0.iq.fu_full::SimdAlu                     0      0.00%     60.75% # attempts to use FU when none available
system.cpu0.iq.fu_full::SimdCmp                     0      0.00%     60.75% # attempts to use FU when none available
system.cpu0.iq.fu_full::SimdCvt                     0      0.00%     60.75% # attempts to use FU when none available
system.cpu0.iq.fu_full::SimdMisc                    0      0.00%     60.75% # attempts to use FU when none available
system.cpu0.iq.fu_full::SimdMult                    0      0.00%     60.75% # attempts to use FU when none available
system.cpu0.iq.fu_full::SimdMultAcc                 0      0.00%     60.75% # attempts to use FU when none available
system.cpu0.iq.fu_full::SimdShift                   0      0.00%     60.75% # attempts to use FU when none available
system.cpu0.iq.fu_full::SimdShiftAcc                0      0.00%     60.75% # attempts to use FU when none available
system.cpu0.iq.fu_full::SimdSqrt                    0      0.00%     60.75% # attempts to use FU when none available
system.cpu0.iq.fu_full::SimdFloatAdd                0      0.00%     60.75% # attempts to use FU when none available
system.cpu0.iq.fu_full::SimdFloatAlu                0      0.00%     60.75% # attempts to use FU when none available
system.cpu0.iq.fu_full::SimdFloatCmp                0      0.00%     60.75% # attempts to use FU when none available
system.cpu0.iq.fu_full::SimdFloatCvt                0      0.00%     60.75% # attempts to use FU when none available
system.cpu0.iq.fu_full::SimdFloatDiv                0      0.00%     60.75% # attempts to use FU when none available
system.cpu0.iq.fu_full::SimdFloatMisc               0      0.00%     60.75% # attempts to use FU when none available
system.cpu0.iq.fu_full::SimdFloatMult               0      0.00%     60.75% # attempts to use FU when none available
system.cpu0.iq.fu_full::SimdFloatMultAcc            0      0.00%     60.75% # attempts to use FU when none available
system.cpu0.iq.fu_full::SimdFloatSqrt               0      0.00%     60.75% # attempts to use FU when none available
system.cpu0.iq.fu_full::MemRead                226057     22.88%     83.62% # attempts to use FU when none available
system.cpu0.iq.fu_full::MemWrite               161828     16.38%    100.00% # attempts to use FU when none available
system.cpu0.iq.fu_full::FloatMemRead                0      0.00%    100.00% # attempts to use FU when none available
system.cpu0.iq.fu_full::FloatMemWrite               0      0.00%    100.00% # attempts to use FU when none available
system.cpu0.iq.fu_full::IprAccess                   0      0.00%    100.00% # attempts to use FU when none available
system.cpu0.iq.fu_full::InstPrefetch                0      0.00%    100.00% # attempts to use FU when none available
system.cpu0.iq.FU_type_0::No_OpClass            12047      0.04%      0.04% # Type of FU issued
system.cpu0.iq.FU_type_0::IntAlu             23354128     75.35%     75.39% # Type of FU issued
system.cpu0.iq.FU_type_0::IntMult                   0      0.00%     75.39% # Type of FU issued
system.cpu0.iq.FU_type_0::IntDiv                    0      0.00%     75.39% # Type of FU issued
system.cpu0.iq.FU_type_0::FloatAdd                212      0.00%     75.39% # Type of FU issued
system.cpu0.iq.FU_type_0::FloatCmp                  0      0.00%     75.39% # Type of FU issued
system.cpu0.iq.FU_type_0::FloatCvt                  0      0.00%     75.39% # Type of FU issued
system.cpu0.iq.FU_type_0::FloatMult                 0      0.00%     75.39% # Type of FU issued
system.cpu0.iq.FU_type_0::FloatMultAcc              0      0.00%     75.39% # Type of FU issued
system.cpu0.iq.FU_type_0::FloatDiv                  0      0.00%     75.39% # Type of FU issued
system.cpu0.iq.FU_type_0::FloatMisc                 0      0.00%     75.39% # Type of FU issued
system.cpu0.iq.FU_type_0::FloatSqrt                 0      0.00%     75.39% # Type of FU issued
system.cpu0.iq.FU_type_0::SimdAdd                   0      0.00%     75.39% # Type of FU issued
system.cpu0.iq.FU_type_0::SimdAddAcc                0      0.00%     75.39% # Type of FU issued
system.cpu0.iq.FU_type_0::SimdAlu                   0      0.00%     75.39% # Type of FU issued
system.cpu0.iq.FU_type_0::SimdCmp                   0      0.00%     75.39% # Type of FU issued
system.cpu0.iq.FU_type_0::SimdCvt                   0      0.00%     75.39% # Type of FU issued
system.cpu0.iq.FU_type_0::SimdMisc                  0      0.00%     75.39% # Type of FU issued
system.cpu0.iq.FU_type_0::SimdMult                  0      0.00%     75.39% # Type of FU issued
system.cpu0.iq.FU_type_0::SimdMultAcc               0      0.00%     75.39% # Type of FU issued
system.cpu0.iq.FU_type_0::SimdShift                 0      0.00%     75.39% # Type of FU issued
system.cpu0.iq.FU_type_0::SimdShiftAcc              0      0.00%     75.39% # Type of FU issued
system.cpu0.iq.FU_type_0::SimdSqrt                  0      0.00%     75.39% # Type of FU issued
system.cpu0.iq.FU_type_0::SimdFloatAdd              0      0.00%     75.39% # Type of FU issued
system.cpu0.iq.FU_type_0::SimdFloatAlu              0      0.00%     75.39% # Type of FU issued
system.cpu0.iq.FU_type_0::SimdFloatCmp              0      0.00%     75.39% # Type of FU issued
system.cpu0.iq.FU_type_0::SimdFloatCvt              0      0.00%     75.39% # Type of FU issued
system.cpu0.iq.FU_type_0::SimdFloatDiv              0      0.00%     75.39% # Type of FU issued
system.cpu0.iq.FU_type_0::SimdFloatMisc             0      0.00%     75.39% # Type of FU issued
system.cpu0.iq.FU_type_0::SimdFloatMult             0      0.00%     75.39% # Type of FU issued
system.cpu0.iq.FU_type_0::SimdFloatMultAcc            0      0.00%     75.39% # Type of FU issued
system.cpu0.iq.FU_type_0::SimdFloatSqrt             0      0.00%     75.39% # Type of FU issued
system.cpu0.iq.FU_type_0::MemRead             4662016     15.04%     90.44% # Type of FU issued
system.cpu0.iq.FU_type_0::MemWrite            2964227      9.56%    100.00% # Type of FU issued
system.cpu0.iq.FU_type_0::FloatMemRead              0      0.00%    100.00% # Type of FU issued
system.cpu0.iq.FU_type_0::FloatMemWrite             0      0.00%    100.00% # Type of FU issued
system.cpu0.iq.FU_type_0::IprAccess                 0      0.00%    100.00% # Type of FU issued
system.cpu0.iq.FU_type_0::InstPrefetch              0      0.00%    100.00% # Type of FU issued
system.cpu0.iq.FU_type_0::total              30992630                       # Type of FU issued
system.cpu0.iq.rate                          1.014997                       # Inst issue rate
system.cpu0.iq.fu_busy_cnt                     988135                       # FU busy when requested
system.cpu0.iq.fu_busy_rate                  0.031883                       # FU busy rate (busy events/executed inst)
system.cpu0.iq.int_inst_queue_reads          93520013                       # Number of integer instruction queue reads
system.cpu0.iq.int_inst_queue_writes         36071984                       # Number of integer instruction queue writes
system.cpu0.iq.int_inst_queue_wakeup_accesses     30765935                       # Number of integer instruction queue wakeup accesses
system.cpu0.iq.fp_inst_queue_reads                472                       # Number of floating instruction queue reads
system.cpu0.iq.fp_inst_queue_writes               690                       # Number of floating instruction queue writes
system.cpu0.iq.fp_inst_queue_wakeup_accesses          229                       # Number of floating instruction queue wakeup accesses
system.cpu0.iq.vec_inst_queue_reads                 0                       # Number of vector instruction queue reads
system.cpu0.iq.vec_inst_queue_writes                0                       # Number of vector instruction queue writes
system.cpu0.iq.vec_inst_queue_wakeup_accesses            0                       # Number of vector instruction queue wakeup accesses
system.cpu0.iq.int_alu_accesses              31968482                       # Number of integer alu accesses
system.cpu0.iq.fp_alu_accesses                    236                       # Number of floating point alu accesses
system.cpu0.iq.vec_alu_accesses                     0                       # Number of vector alu accesses
system.cpu0.iew.lsq.thread0.forwLoads         1464595                       # Number of loads that had data forwarded from stores
system.cpu0.iew.lsq.thread0.invAddrLoads            0                       # Number of loads ignored due to an invalid address
system.cpu0.iew.lsq.thread0.squashedLoads       708296                       # Number of loads squashed
system.cpu0.iew.lsq.thread0.ignoredResponses           23                       # Number of memory responses ignored because the instruction is squashed
system.cpu0.iew.lsq.thread0.memOrderViolation           70                       # Number of memory ordering violations
system.cpu0.iew.lsq.thread0.squashedStores       418933                       # Number of stores squashed
system.cpu0.iew.lsq.thread0.invAddrSwpfs            0                       # Number of software prefetches ignored due to an invalid address
system.cpu0.iew.lsq.thread0.blockedLoads            0                       # Number of blocked loads due to partial load-store forwarding
system.cpu0.iew.lsq.thread0.rescheduledLoads            5                       # Number of loads that were rescheduled
system.cpu0.iew.lsq.thread0.cacheBlocked           83                       # Number of times an access to memory failed due to the cache being blocked
system.cpu0.iew.iewIdleCycles                       0                       # Number of cycles IEW is idle
system.cpu0.iew.iewSquashCycles                 39698                       # Number of cycles IEW is squashing
system.cpu0.iew.iewBlockCycles               17639182                       # Number of cycles IEW is blocking
system.cpu0.iew.iewUnblockCycles               204540                       # Number of cycles IEW is unblocking
system.cpu0.iew.iewDispatchedInsts           32259903                       # Number of instructions dispatched to IQ
system.cpu0.iew.iewDispSquashedInsts              121                       # Number of squashed instructions skipped by dispatch
system.cpu0.iew.iewDispLoadInsts              4978203                       # Number of dispatched load instructions
system.cpu0.iew.iewDispStoreInsts             3117093                       # Number of dispatched store instructions
system.cpu0.iew.iewDispNonSpecInsts               248                       # Number of dispatched non-speculative instructions
system.cpu0.iew.iewIQFullEvents                188331                       # Number of times the IQ has become full, causing a stall
system.cpu0.iew.iewLSQFullEvents                    0                       # Number of times the LSQ has become full, causing a stall
system.cpu0.iew.memOrderViolationEvents            70                       # Number of memory order violations
system.cpu0.iew.predictedTakenIncorrect         31416                       # Number of branches that were predicted taken incorrectly
system.cpu0.iew.predictedNotTakenIncorrect        56465                       # Number of branches that were predicted not taken incorrectly
system.cpu0.iew.branchMispredicts               87881                       # Number of branch mispredicts detected at execute
system.cpu0.iew.iewExecutedInsts             30888190                       # Number of executed instructions
system.cpu0.iew.iewExecLoadInsts              4636974                       # Number of load instructions executed
system.cpu0.iew.iewExecSquashedInsts           104440                       # Number of squashed instructions skipped in execute
system.cpu0.iew.exec_swp                            0                       # number of swp insts executed
system.cpu0.iew.exec_nop                            0                       # number of nop insts executed
system.cpu0.iew.exec_refs                     7572177                       # number of memory reference insts executed
system.cpu0.iew.exec_branches                 3564216                       # Number of branches executed
system.cpu0.iew.exec_stores                   2935203                       # Number of stores executed
system.cpu0.iew.exec_rate                    1.011577                       # Inst execution rate
system.cpu0.iew.wb_sent                      30848948                       # cumulative count of insts sent to commit
system.cpu0.iew.wb_count                     30766164                       # cumulative count of insts written-back
system.cpu0.iew.wb_producers                 23125379                       # num instructions producing a value
system.cpu0.iew.wb_consumers                 40148316                       # num instructions consuming a value
system.cpu0.iew.wb_rate                      1.007581                       # insts written-back per cycle
system.cpu0.iew.wb_fanout                    0.575999                       # average fanout of values written-back
system.cpu0.commit.commitSquashedInsts        3812712                       # The number of squashed insts skipped by commit
system.cpu0.commit.commitNonSpecStalls              3                       # The number of times commit has been forced to stall to communicate backwards
system.cpu0.commit.branchMispredicts            39657                       # The number of times a branch was mispredicted
system.cpu0.commit.committed_per_cycle::samples     30031267                       # Number of insts commited each cycle
system.cpu0.commit.committed_per_cycle::mean     0.947255                       # Number of insts commited each cycle
system.cpu0.commit.committed_per_cycle::stdev     2.386809                       # Number of insts commited each cycle
system.cpu0.commit.committed_per_cycle::underflows            0      0.00%      0.00% # Number of insts commited each cycle
system.cpu0.commit.committed_per_cycle::0     24915782     82.97%     82.97% # Number of insts commited each cycle
system.cpu0.commit.committed_per_cycle::1       482282      1.61%     84.57% # Number of insts commited each cycle
system.cpu0.commit.committed_per_cycle::2       706316      2.35%     86.92% # Number of insts commited each cycle
system.cpu0.commit.committed_per_cycle::3       674557      2.25%     89.17% # Number of insts commited each cycle
system.cpu0.commit.committed_per_cycle::4       164186      0.55%     89.72% # Number of insts commited each cycle
system.cpu0.commit.committed_per_cycle::5        40344      0.13%     89.85% # Number of insts commited each cycle
system.cpu0.commit.committed_per_cycle::6       319916      1.07%     90.92% # Number of insts commited each cycle
system.cpu0.commit.committed_per_cycle::7        72339      0.24%     91.16% # Number of insts commited each cycle
system.cpu0.commit.committed_per_cycle::8      2655545      8.84%    100.00% # Number of insts commited each cycle
system.cpu0.commit.committed_per_cycle::overflows            0      0.00%    100.00% # Number of insts commited each cycle
system.cpu0.commit.committed_per_cycle::min_value            0                       # Number of insts commited each cycle
system.cpu0.commit.committed_per_cycle::max_value            8                       # Number of insts commited each cycle
system.cpu0.commit.committed_per_cycle::total     30031267                       # Number of insts commited each cycle
system.cpu0.commit.committedInsts            15042722                       # Number of instructions committed
system.cpu0.commit.committedOps              28447278                       # Number of ops (including micro ops) committed
system.cpu0.commit.swp_count                        0                       # Number of s/w prefetches committed
system.cpu0.commit.refs                       6968078                       # Number of memory references committed
system.cpu0.commit.loads                      4269912                       # Number of loads committed
system.cpu0.commit.membars                          2                       # Number of memory barriers committed
system.cpu0.commit.branches                   3396360                       # Number of branches committed
system.cpu0.commit.vec_insts                        0                       # Number of committed Vector instructions.
system.cpu0.commit.fp_insts                         0                       # Number of committed floating point instructions.
system.cpu0.commit.int_insts                 28437713                       # Number of committed integer instructions.
system.cpu0.commit.function_calls              102421                       # Number of function calls committed.
system.cpu0.commit.op_class_0::No_OpClass         9563      0.03%      0.03% # Class of committed instruction
system.cpu0.commit.op_class_0::IntAlu        21469637     75.47%     75.51% # Class of committed instruction
system.cpu0.commit.op_class_0::IntMult              0      0.00%     75.51% # Class of committed instruction
system.cpu0.commit.op_class_0::IntDiv               0      0.00%     75.51% # Class of committed instruction
system.cpu0.commit.op_class_0::FloatAdd             0      0.00%     75.51% # Class of committed instruction
system.cpu0.commit.op_class_0::FloatCmp             0      0.00%     75.51% # Class of committed instruction
system.cpu0.commit.op_class_0::FloatCvt             0      0.00%     75.51% # Class of committed instruction
system.cpu0.commit.op_class_0::FloatMult            0      0.00%     75.51% # Class of committed instruction
system.cpu0.commit.op_class_0::FloatMultAcc            0      0.00%     75.51% # Class of committed instruction
system.cpu0.commit.op_class_0::FloatDiv             0      0.00%     75.51% # Class of committed instruction
system.cpu0.commit.op_class_0::FloatMisc            0      0.00%     75.51% # Class of committed instruction
system.cpu0.commit.op_class_0::FloatSqrt            0      0.00%     75.51% # Class of committed instruction
system.cpu0.commit.op_class_0::SimdAdd              0      0.00%     75.51% # Class of committed instruction
system.cpu0.commit.op_class_0::SimdAddAcc            0      0.00%     75.51% # Class of committed instruction
system.cpu0.commit.op_class_0::SimdAlu              0      0.00%     75.51% # Class of committed instruction
system.cpu0.commit.op_class_0::SimdCmp              0      0.00%     75.51% # Class of committed instruction
system.cpu0.commit.op_class_0::SimdCvt              0      0.00%     75.51% # Class of committed instruction
system.cpu0.commit.op_class_0::SimdMisc             0      0.00%     75.51% # Class of committed instruction
system.cpu0.commit.op_class_0::SimdMult             0      0.00%     75.51% # Class of committed instruction
system.cpu0.commit.op_class_0::SimdMultAcc            0      0.00%     75.51% # Class of committed instruction
system.cpu0.commit.op_class_0::SimdShift            0      0.00%     75.51% # Class of committed instruction
system.cpu0.commit.op_class_0::SimdShiftAcc            0      0.00%     75.51% # Class of committed instruction
system.cpu0.commit.op_class_0::SimdSqrt             0      0.00%     75.51% # Class of committed instruction
system.cpu0.commit.op_class_0::SimdFloatAdd            0      0.00%     75.51% # Class of committed instruction
system.cpu0.commit.op_class_0::SimdFloatAlu            0      0.00%     75.51% # Class of committed instruction
system.cpu0.commit.op_class_0::SimdFloatCmp            0      0.00%     75.51% # Class of committed instruction
system.cpu0.commit.op_class_0::SimdFloatCvt            0      0.00%     75.51% # Class of committed instruction
system.cpu0.commit.op_class_0::SimdFloatDiv            0      0.00%     75.51% # Class of committed instruction
system.cpu0.commit.op_class_0::SimdFloatMisc            0      0.00%     75.51% # Class of committed instruction
system.cpu0.commit.op_class_0::SimdFloatMult            0      0.00%     75.51% # Class of committed instruction
system.cpu0.commit.op_class_0::SimdFloatMultAcc            0      0.00%     75.51% # Class of committed instruction
system.cpu0.commit.op_class_0::SimdFloatSqrt            0      0.00%     75.51% # Class of committed instruction
system.cpu0.commit.op_class_0::MemRead        4269912     15.01%     90.52% # Class of committed instruction
system.cpu0.commit.op_class_0::MemWrite       2698166      9.48%    100.00% # Class of committed instruction
system.cpu0.commit.op_class_0::FloatMemRead            0      0.00%    100.00% # Class of committed instruction
system.cpu0.commit.op_class_0::FloatMemWrite            0      0.00%    100.00% # Class of committed instruction
system.cpu0.commit.op_class_0::IprAccess            0      0.00%    100.00% # Class of committed instruction
system.cpu0.commit.op_class_0::InstPrefetch            0      0.00%    100.00% # Class of committed instruction
system.cpu0.commit.op_class_0::total         28447278                       # Class of committed instruction
system.cpu0.commit.bw_lim_events              2655545                       # number cycles where commit BW limit reached
system.cpu0.rob.rob_reads                    59635712                       # The number of ROB reads
system.cpu0.rob.rob_writes                   65024332                       # The number of ROB writes
system.cpu0.timesIdled                              2                       # Number of times that the entire CPU went into an idle state and unscheduled itself
system.cpu0.idleCycles                             53                       # Total number of cycles that the CPU has spent unscheduled due to idling
system.cpu0.committedInsts                   15042722                       # Number of Instructions Simulated
system.cpu0.committedOps                     28447278                       # Number of Ops (including micro ops) Simulated
system.cpu0.cpi                              2.029865                       # CPI: Cycles Per Instruction
system.cpu0.cpi_total                        2.029865                       # CPI: Total CPI of All Threads
system.cpu0.ipc                              0.492644                       # IPC: Instructions Per Cycle
system.cpu0.ipc_total                        0.492644                       # IPC: Total IPC of All Threads
system.cpu0.int_regfile_reads                45771387                       # number of integer regfile reads
system.cpu0.int_regfile_writes               24307132                       # number of integer regfile writes
system.cpu0.fp_regfile_reads                      376                       # number of floating regfile reads
system.cpu0.fp_regfile_writes                     229                       # number of floating regfile writes
system.cpu0.cc_regfile_reads                 20287794                       # number of cc regfile reads
system.cpu0.cc_regfile_writes                10494244                       # number of cc regfile writes
system.cpu0.misc_regfile_reads               15024559                       # number of misc regfile reads
system.cpu0.dcache.tags.pwrStateResidencyTicks::UNDEFINED  15267344125                       # Cumulative time (in ticks) in various power states
system.cpu0.dcache.tags.replacements           188528                       # number of replacements
system.cpu0.dcache.tags.tagsinuse                1024                       # Cycle average of tags in use
system.cpu0.dcache.tags.total_refs           11322638                       # Total number of references to valid blocks.
system.cpu0.dcache.tags.sampled_refs           188528                       # Sample count of references to valid blocks.
system.cpu0.dcache.tags.avg_refs            60.058124                       # Average number of references to valid blocks.
system.cpu0.dcache.tags.warmup_cycle                0                       # Cycle when the warmup percentage was hit.
system.cpu0.dcache.tags.occ_blocks::cpu0.data         1024                       # Average occupied blocks per requestor
system.cpu0.dcache.tags.occ_percent::cpu0.data            1                       # Average percentage of cache occupancy
system.cpu0.dcache.tags.occ_percent::total            1                       # Average percentage of cache occupancy
system.cpu0.dcache.tags.occ_task_id_blocks::1024         1024                       # Occupied blocks per task id
system.cpu0.dcache.tags.age_task_id_blocks_1024::0          103                       # Occupied blocks per task id
system.cpu0.dcache.tags.age_task_id_blocks_1024::1          918                       # Occupied blocks per task id
system.cpu0.dcache.tags.age_task_id_blocks_1024::2            2                       # Occupied blocks per task id
system.cpu0.dcache.tags.age_task_id_blocks_1024::4            1                       # Occupied blocks per task id
system.cpu0.dcache.tags.occ_task_id_percent::1024            1                       # Percentage of cache occupancy per task id
system.cpu0.dcache.tags.tag_accesses         23550040                       # Number of tag accesses
system.cpu0.dcache.tags.data_accesses        23550040                       # Number of data accesses
system.cpu0.dcache.pwrStateResidencyTicks::UNDEFINED  15267344125                       # Cumulative time (in ticks) in various power states
system.cpu0.dcache.ReadReq_hits::cpu0.data      2756949                       # number of ReadReq hits
system.cpu0.dcache.ReadReq_hits::total        2756949                       # number of ReadReq hits
system.cpu0.dcache.WriteReq_hits::cpu0.data      2698158                       # number of WriteReq hits
system.cpu0.dcache.WriteReq_hits::total       2698158                       # number of WriteReq hits
system.cpu0.dcache.demand_hits::cpu0.data      5455107                       # number of demand (read+write) hits
system.cpu0.dcache.demand_hits::total         5455107                       # number of demand (read+write) hits
system.cpu0.dcache.overall_hits::cpu0.data      5455107                       # number of overall hits
system.cpu0.dcache.overall_hits::total        5455107                       # number of overall hits
system.cpu0.dcache.ReadReq_misses::cpu0.data       385269                       # number of ReadReq misses
system.cpu0.dcache.ReadReq_misses::total       385269                       # number of ReadReq misses
system.cpu0.dcache.WriteReq_misses::cpu0.data            2                       # number of WriteReq misses
system.cpu0.dcache.WriteReq_misses::total            2                       # number of WriteReq misses
system.cpu0.dcache.demand_misses::cpu0.data       385271                       # number of demand (read+write) misses
system.cpu0.dcache.demand_misses::total        385271                       # number of demand (read+write) misses
system.cpu0.dcache.overall_misses::cpu0.data       385271                       # number of overall misses
system.cpu0.dcache.overall_misses::total       385271                       # number of overall misses
system.cpu0.dcache.ReadReq_miss_latency::cpu0.data  26823635500                       # number of ReadReq miss cycles
system.cpu0.dcache.ReadReq_miss_latency::total  26823635500                       # number of ReadReq miss cycles
system.cpu0.dcache.WriteReq_miss_latency::cpu0.data       156500                       # number of WriteReq miss cycles
system.cpu0.dcache.WriteReq_miss_latency::total       156500                       # number of WriteReq miss cycles
system.cpu0.dcache.demand_miss_latency::cpu0.data  26823792000                       # number of demand (read+write) miss cycles
system.cpu0.dcache.demand_miss_latency::total  26823792000                       # number of demand (read+write) miss cycles
system.cpu0.dcache.overall_miss_latency::cpu0.data  26823792000                       # number of overall miss cycles
system.cpu0.dcache.overall_miss_latency::total  26823792000                       # number of overall miss cycles
system.cpu0.dcache.ReadReq_accesses::cpu0.data      3142218                       # number of ReadReq accesses(hits+misses)
system.cpu0.dcache.ReadReq_accesses::total      3142218                       # number of ReadReq accesses(hits+misses)
system.cpu0.dcache.WriteReq_accesses::cpu0.data      2698160                       # number of WriteReq accesses(hits+misses)
system.cpu0.dcache.WriteReq_accesses::total      2698160                       # number of WriteReq accesses(hits+misses)
system.cpu0.dcache.demand_accesses::cpu0.data      5840378                       # number of demand (read+write) accesses
system.cpu0.dcache.demand_accesses::total      5840378                       # number of demand (read+write) accesses
system.cpu0.dcache.overall_accesses::cpu0.data      5840378                       # number of overall (read+write) accesses
system.cpu0.dcache.overall_accesses::total      5840378                       # number of overall (read+write) accesses
system.cpu0.dcache.ReadReq_miss_rate::cpu0.data     0.122611                       # miss rate for ReadReq accesses
system.cpu0.dcache.ReadReq_miss_rate::total     0.122611                       # miss rate for ReadReq accesses
system.cpu0.dcache.WriteReq_miss_rate::cpu0.data     0.000001                       # miss rate for WriteReq accesses
system.cpu0.dcache.WriteReq_miss_rate::total     0.000001                       # miss rate for WriteReq accesses
system.cpu0.dcache.demand_miss_rate::cpu0.data     0.065967                       # miss rate for demand accesses
system.cpu0.dcache.demand_miss_rate::total     0.065967                       # miss rate for demand accesses
system.cpu0.dcache.overall_miss_rate::cpu0.data     0.065967                       # miss rate for overall accesses
system.cpu0.dcache.overall_miss_rate::total     0.065967                       # miss rate for overall accesses
system.cpu0.dcache.ReadReq_avg_miss_latency::cpu0.data 69623.134745                       # average ReadReq miss latency
system.cpu0.dcache.ReadReq_avg_miss_latency::total 69623.134745                       # average ReadReq miss latency
system.cpu0.dcache.WriteReq_avg_miss_latency::cpu0.data        78250                       # average WriteReq miss latency
system.cpu0.dcache.WriteReq_avg_miss_latency::total        78250                       # average WriteReq miss latency
[...]
system.l2.ReadSharedReq_miss_rate::cpu0.data     0.810138                       # miss rate for ReadSharedReq accesses
system.l2.ReadSharedReq_miss_rate::total     0.810138                       # miss rate for ReadSharedReq accesses
system.l2.demand_miss_rate::cpu0.inst               1                       # miss rate for demand accesses
system.l2.demand_miss_rate::cpu0.data        0.810140                       # miss rate for demand accesses
system.l2.demand_miss_rate::total            0.810143                       # miss rate for demand accesses
system.l2.overall_miss_rate::cpu0.inst              1                       # miss rate for overall accesses
system.l2.overall_miss_rate::cpu0.data       0.810140                       # miss rate for overall accesses
system.l2.overall_miss_rate::total           0.810143                       # miss rate for overall accesses
system.l2.ReadExReq_avg_miss_latency::cpu0.data        75750                       # average ReadExReq miss latency
system.l2.ReadExReq_avg_miss_latency::total        75750                       # average ReadExReq miss latency
system.l2.ReadCleanReq_avg_miss_latency::cpu0.inst 104166.666667                       # average ReadCleanReq miss latency
system.l2.ReadCleanReq_avg_miss_latency::total 104166.666667                       # average ReadCleanReq miss latency
system.l2.ReadSharedReq_avg_miss_latency::cpu0.data 87360.553126                       # average ReadSharedReq miss latency
system.l2.ReadSharedReq_avg_miss_latency::total 87360.553126                       # average ReadSharedReq miss latency
system.l2.demand_avg_miss_latency::cpu0.inst 104166.666667                       # average overall miss latency
system.l2.demand_avg_miss_latency::cpu0.data 87360.401089                       # average overall miss latency
system.l2.demand_avg_miss_latency::total 87360.731192                       # average overall miss latency
system.l2.overall_avg_miss_latency::cpu0.inst 104166.666667                       # average overall miss latency
system.l2.overall_avg_miss_latency::cpu0.data 87360.401089                       # average overall miss latency
system.l2.overall_avg_miss_latency::total 87360.731192                       # average overall miss latency
system.l2.blocked_cycles::no_mshrs                  0                       # number of cycles access was blocked
system.l2.blocked_cycles::no_targets                0                       # number of cycles access was blocked
system.l2.blocked::no_mshrs                         0                       # number of cycles access was blocked
system.l2.blocked::no_targets                       0                       # number of cycles access was blocked
system.l2.avg_blocked_cycles::no_mshrs            nan                       # average number of cycles each access was blocked
system.l2.avg_blocked_cycles::no_targets          nan                       # average number of cycles each access was blocked
system.l2.writebacks::writebacks               124538                       # number of writebacks
system.l2.writebacks::total                    124538                       # number of writebacks
system.l2.CleanEvict_mshr_misses::writebacks            4                       # number of CleanEvict MSHR misses
system.l2.CleanEvict_mshr_misses::total             4                       # number of CleanEvict MSHR misses
system.l2.ReadExReq_mshr_misses::cpu0.data            2                       # number of ReadExReq MSHR misses
system.l2.ReadExReq_mshr_misses::total              2                       # number of ReadExReq MSHR misses
system.l2.ReadCleanReq_mshr_misses::cpu0.inst            3                       # number of ReadCleanReq MSHR misses
system.l2.ReadCleanReq_mshr_misses::total            3                       # number of ReadCleanReq MSHR misses
system.l2.ReadSharedReq_mshr_misses::cpu0.data       152732                       # number of ReadSharedReq MSHR misses
system.l2.ReadSharedReq_mshr_misses::total       152732                       # number of ReadSharedReq MSHR misses
system.l2.demand_mshr_misses::cpu0.inst             3                       # number of demand (read+write) MSHR misses
system.l2.demand_mshr_misses::cpu0.data        152734                       # number of demand (read+write) MSHR misses
system.l2.demand_mshr_misses::total            152737                       # number of demand (read+write) MSHR misses
system.l2.overall_mshr_misses::cpu0.inst            3                       # number of overall MSHR misses
system.l2.overall_mshr_misses::cpu0.data       152734                       # number of overall MSHR misses
system.l2.overall_mshr_misses::total           152737                       # number of overall MSHR misses
system.l2.ReadExReq_mshr_miss_latency::cpu0.data       131500                       # number of ReadExReq MSHR miss cycles
system.l2.ReadExReq_mshr_miss_latency::total       131500                       # number of ReadExReq MSHR miss cycles
system.l2.ReadCleanReq_mshr_miss_latency::cpu0.inst       282500                       # number of ReadCleanReq MSHR miss cycles
system.l2.ReadCleanReq_mshr_miss_latency::total       282500                       # number of ReadCleanReq MSHR miss cycles
system.l2.ReadSharedReq_mshr_miss_latency::cpu0.data  11815432000                       # number of ReadSharedReq MSHR miss cycles
system.l2.ReadSharedReq_mshr_miss_latency::total  11815432000                       # number of ReadSharedReq MSHR miss cycles
system.l2.demand_mshr_miss_latency::cpu0.inst       282500                       # number of demand (read+write) MSHR miss cycles
system.l2.demand_mshr_miss_latency::cpu0.data  11815563500                       # number of demand (read+write) MSHR miss cycles
system.l2.demand_mshr_miss_latency::total  11815846000                       # number of demand (read+write) MSHR miss cycles
system.l2.overall_mshr_miss_latency::cpu0.inst       282500                       # number of overall MSHR miss cycles
system.l2.overall_mshr_miss_latency::cpu0.data  11815563500                       # number of overall MSHR miss cycles
system.l2.overall_mshr_miss_latency::total  11815846000                       # number of overall MSHR miss cycles
system.l2.CleanEvict_mshr_miss_rate::writebacks          inf                       # mshr miss rate for CleanEvict accesses
system.l2.CleanEvict_mshr_miss_rate::total          inf                       # mshr miss rate for CleanEvict accesses
system.l2.ReadExReq_mshr_miss_rate::cpu0.data            1                       # mshr miss rate for ReadExReq accesses
system.l2.ReadExReq_mshr_miss_rate::total            1                       # mshr miss rate for ReadExReq accesses
system.l2.ReadCleanReq_mshr_miss_rate::cpu0.inst            1                       # mshr miss rate for ReadCleanReq accesses
system.l2.ReadCleanReq_mshr_miss_rate::total            1                       # mshr miss rate for ReadCleanReq accesses
system.l2.ReadSharedReq_mshr_miss_rate::cpu0.data     0.810138                       # mshr miss rate for ReadSharedReq accesses
system.l2.ReadSharedReq_mshr_miss_rate::total     0.810138                       # mshr miss rate for ReadSharedReq accesses
system.l2.demand_mshr_miss_rate::cpu0.inst            1                       # mshr miss rate for demand accesses
system.l2.demand_mshr_miss_rate::cpu0.data     0.810140                       # mshr miss rate for demand accesses
system.l2.demand_mshr_miss_rate::total       0.810143                       # mshr miss rate for demand accesses
system.l2.overall_mshr_miss_rate::cpu0.inst            1                       # mshr miss rate for overall accesses
system.l2.overall_mshr_miss_rate::cpu0.data     0.810140                       # mshr miss rate for overall accesses
system.l2.overall_mshr_miss_rate::total      0.810143                       # mshr miss rate for overall accesses
system.l2.ReadExReq_avg_mshr_miss_latency::cpu0.data        65750                       # average ReadExReq mshr miss latency
system.l2.ReadExReq_avg_mshr_miss_latency::total        65750                       # average ReadExReq mshr miss latency
system.l2.ReadCleanReq_avg_mshr_miss_latency::cpu0.inst 94166.666667                       # average ReadCleanReq mshr miss latency
system.l2.ReadCleanReq_avg_mshr_miss_latency::total 94166.666667                       # average ReadCleanReq mshr miss latency
system.l2.ReadSharedReq_avg_mshr_miss_latency::cpu0.data 77360.553126                       # average ReadSharedReq mshr miss latency
system.l2.ReadSharedReq_avg_mshr_miss_latency::total 77360.553126                       # average ReadSharedReq mshr miss latency
system.l2.demand_avg_mshr_miss_latency::cpu0.inst 94166.666667                       # average overall mshr miss latency
system.l2.demand_avg_mshr_miss_latency::cpu0.data 77360.401089                       # average overall mshr miss latency
system.l2.demand_avg_mshr_miss_latency::total 77360.731192                       # average overall mshr miss latency
system.l2.overall_avg_mshr_miss_latency::cpu0.inst 94166.666667                       # average overall mshr miss latency
system.l2.overall_avg_mshr_miss_latency::cpu0.data 77360.401089                       # average overall mshr miss latency
system.l2.overall_avg_mshr_miss_latency::total 77360.731192                       # average overall mshr miss latency
system.membus.snoop_filter.tot_requests        305483                       # Total number of requests made to the snoop filter.
system.membus.snoop_filter.hit_single_requests       152746                       # Number of requests hitting in the snoop filter with a single holder of the requested data.
system.membus.snoop_filter.hit_multi_requests            0                       # Number of requests hitting in the snoop filter with multiple (>1) holders of the requested data.
system.membus.snoop_filter.tot_snoops               0                       # Total number of snoops made to the snoop filter.
system.membus.snoop_filter.hit_single_snoops            0                       # Number of snoops hitting in the snoop filter with a single holder of the requested data.
system.membus.snoop_filter.hit_multi_snoops            0                       # Number of snoops hitting in the snoop filter with multiple (>1) holders of the requested data.
system.membus.pwrStateResidencyTicks::UNDEFINED  15267344125                       # Cumulative time (in ticks) in various power states
system.membus.trans_dist::ReadResp             152735                       # Transaction distribution
system.membus.trans_dist::WritebackDirty       124538                       # Transaction distribution
system.membus.trans_dist::CleanEvict            28208                       # Transaction distribution
system.membus.trans_dist::ReadExReq                 2                       # Transaction distribution
system.membus.trans_dist::ReadExResp                2                       # Transaction distribution
system.membus.trans_dist::ReadSharedReq        152735                       # Transaction distribution
system.membus.pkt_count_system.l2.mem_side::system.mem_ctrls.port       458220                       # Packet count per connected master and slave (bytes)
system.membus.pkt_count_system.l2.mem_side::total       458220                       # Packet count per connected master and slave (bytes)
system.membus.pkt_count::total                 458220                       # Packet count per connected master and slave (bytes)
system.membus.pkt_size_system.l2.mem_side::system.mem_ctrls.port     17745600                       # Cumulative packet size per connected master and slave (bytes)
system.membus.pkt_size_system.l2.mem_side::total     17745600                       # Cumulative packet size per connected master and slave (bytes)
system.membus.pkt_size::total                17745600                       # Cumulative packet size per connected master and slave (bytes)
system.membus.snoops                                0                       # Total snoops (count)
system.membus.snoopTraffic                          0                       # Total snoop traffic (bytes)
system.membus.snoop_fanout::samples            152737                       # Request fanout histogram
system.membus.snoop_fanout::mean                    0                       # Request fanout histogram
system.membus.snoop_fanout::stdev                   0                       # Request fanout histogram
system.membus.snoop_fanout::underflows              0      0.00%      0.00% # Request fanout histogram
system.membus.snoop_fanout::0                  152737    100.00%    100.00% # Request fanout histogram
system.membus.snoop_fanout::1                       0      0.00%    100.00% # Request fanout histogram
system.membus.snoop_fanout::overflows               0      0.00%    100.00% # Request fanout histogram
system.membus.snoop_fanout::min_value               0                       # Request fanout histogram
system.membus.snoop_fanout::max_value               0                       # Request fanout histogram
system.membus.snoop_fanout::total              152737                       # Request fanout histogram
system.membus.reqLayer8.occupancy           853954000                       # Layer occupancy (ticks)
system.membus.reqLayer8.utilization               5.6                       # Layer utilization (%)
system.membus.respLayer1.occupancy          803762000                       # Layer occupancy (ticks)
system.membus.respLayer1.utilization              5.3                       # Layer utilization (%)
system.tol2bus.snoop_filter.tot_requests       377062                       # Total number of requests made to the snoop filter.
system.tol2bus.snoop_filter.hit_single_requests       188531                       # Number of requests hitting in the snoop filter with a single holder of the requested data.
system.tol2bus.snoop_filter.hit_multi_requests            2                       # Number of requests hitting in the snoop filter with multiple (>1) holders of the requested data.
system.tol2bus.snoop_filter.tot_snoops              5                       # Total number of snoops made to the snoop filter.
system.tol2bus.snoop_filter.hit_single_snoops            5                       # Number of snoops hitting in the snoop filter with a single holder of the requested data.
system.tol2bus.snoop_filter.hit_multi_snoops            0                       # Number of snoops hitting in the snoop filter with multiple (>1) holders of the requested data.
system.tol2bus.pwrStateResidencyTicks::UNDEFINED  15267344125                       # Cumulative time (in ticks) in various power states
system.tol2bus.trans_dist::ReadResp            188529                       # Transaction distribution
system.tol2bus.trans_dist::WritebackDirty       297153                       # Transaction distribution
system.tol2bus.trans_dist::WritebackClean            3                       # Transaction distribution
system.tol2bus.trans_dist::CleanEvict           44121                       # Transaction distribution
system.tol2bus.trans_dist::ReadExReq                2                       # Transaction distribution
system.tol2bus.trans_dist::ReadExResp               2                       # Transaction distribution
system.tol2bus.trans_dist::ReadCleanReq             3                       # Transaction distribution
system.tol2bus.trans_dist::ReadSharedReq       188526                       # Transaction distribution
system.tol2bus.pkt_count_system.cpu0.icache.mem_side::system.l2.cpu_side            9                       # Packet count per connected master and slave (bytes)
system.tol2bus.pkt_count_system.cpu0.dcache.mem_side::system.l2.cpu_side       565584                       # Packet count per connected master and slave (bytes)
system.tol2bus.pkt_count::total                565593                       # Packet count per connected master and slave (bytes)
system.tol2bus.pkt_size_system.cpu0.icache.mem_side::system.l2.cpu_side          384                       # Cumulative packet size per connected master and slave (bytes)
system.tol2bus.pkt_size_system.cpu0.dcache.mem_side::system.l2.cpu_side     23113152                       # Cumulative packet size per connected master and slave (bytes)
system.tol2bus.pkt_size::total               23113536                       # Cumulative packet size per connected master and slave (bytes)
system.tol2bus.snoops                          152746                       # Total snoops (count)
system.tol2bus.snoopTraffic                   7970432                       # Total snoop traffic (bytes)
system.tol2bus.snoop_fanout::samples           341277                       # Request fanout histogram
system.tol2bus.snoop_fanout::mean            0.000021                       # Request fanout histogram
system.tol2bus.snoop_fanout::stdev           0.004529                       # Request fanout histogram
system.tol2bus.snoop_fanout::underflows             0      0.00%      0.00% # Request fanout histogram
system.tol2bus.snoop_fanout::0                 341270    100.00%    100.00% # Request fanout histogram
system.tol2bus.snoop_fanout::1                      7      0.00%    100.00% # Request fanout histogram
system.tol2bus.snoop_fanout::2                      0      0.00%    100.00% # Request fanout histogram
system.tol2bus.snoop_fanout::3                      0      0.00%    100.00% # Request fanout histogram
system.tol2bus.snoop_fanout::4                      0      0.00%    100.00% # Request fanout histogram
system.tol2bus.snoop_fanout::5                      0      0.00%    100.00% # Request fanout histogram
system.tol2bus.snoop_fanout::6                      0      0.00%    100.00% # Request fanout histogram
system.tol2bus.snoop_fanout::7                      0      0.00%    100.00% # Request fanout histogram
system.tol2bus.snoop_fanout::8                      0      0.00%    100.00% # Request fanout histogram
system.tol2bus.snoop_fanout::9                      0      0.00%    100.00% # Request fanout histogram
system.tol2bus.snoop_fanout::10                     0      0.00%    100.00% # Request fanout histogram
system.tol2bus.snoop_fanout::11                     0      0.00%    100.00% # Request fanout histogram
system.tol2bus.snoop_fanout::12                     0      0.00%    100.00% # Request fanout histogram
system.tol2bus.snoop_fanout::13                     0      0.00%    100.00% # Request fanout histogram
system.tol2bus.snoop_fanout::14                     0      0.00%    100.00% # Request fanout histogram
system.tol2bus.snoop_fanout::15                     0      0.00%    100.00% # Request fanout histogram
system.tol2bus.snoop_fanout::16                     0      0.00%    100.00% # Request fanout histogram
system.tol2bus.snoop_fanout::overflows              0      0.00%    100.00% # Request fanout histogram
system.tol2bus.snoop_fanout::min_value              0                       # Request fanout histogram
system.tol2bus.snoop_fanout::max_value              1                       # Request fanout histogram
system.tol2bus.snoop_fanout::total             341277                       # Request fanout histogram
system.tol2bus.reqLayer0.occupancy          361149000                       # Layer occupancy (ticks)
system.tol2bus.reqLayer0.utilization              2.4                       # Layer utilization (%)
system.tol2bus.respLayer0.occupancy              4500                       # Layer occupancy (ticks)
system.tol2bus.respLayer0.utilization             0.0                       # Layer utilization (%)
system.tol2bus.respLayer1.occupancy         282792000                       # Layer occupancy (ticks)
system.tol2bus.respLayer1.utilization             1.9                       # Layer utilization (%)

---------- End Simulation Statistics   ----------
