
---------- Begin Simulation Statistics ----------
sim_seconds                                  0.015267                       # Number of seconds simulated
sim_ticks                                 15267344125                       # Number of ticks simulated
final_tick                               595426420875                       # Number of ticks from beginning of simulation (restored from checkpoints and never reset)
sim_freq                                 1000000000000                       # Frequency of simulated ticks
host_inst_rate                                4757021                       # Simulator instruction rate (inst/s)
host_op_rate                                  8993148                       # Simulator op (including micro ops) rate (op/s)
host_tick_rate                               53907091                       # Simulator tick rate (ticks/s)
host_mem_usage                                2302864                       # Number of bytes of host memory used
host_seconds                                   283.22                       # Real time elapsed on the host
sim_insts                                  1347263601                       # Number of instructions simulated
sim_ops                                    2547002319                       # Number of ops (including micro ops) simulated
system.voltage_domain.voltage                       1                       # Voltage in Volts
system.clk_domain.clock                          1000                       # Clock period in ticks
system.mem_ctrls.pwrStateResidencyTicks::UNDEFINED  15267344125                       # Cumulative time (in ticks) in various power states
system.mem_ctrls.bytes_read::cpu0.inst           1472                       # Number of bytes read from this memory
system.mem_ctrls.bytes_read::cpu0.data        5863232                       # Number of bytes read from this memory
system.mem_ctrls.bytes_read::total            5864704                       # Number of bytes read from this memory
system.mem_ctrls.bytes_inst_read::cpu0.inst         1472                       # Number of instructions bytes read from this memory
system.mem_ctrls.bytes_inst_read::total          1472                       # Number of instructions bytes read from this memory
system.mem_ctrls.bytes_written::writebacks      1464960                       # Number of bytes written to this memory
system.mem_ctrls.bytes_written::total         1464960                       # Number of bytes written to this memory
system.mem_ctrls.num_reads::cpu0.inst              23                       # Number of read requests responded to by this memory
system.mem_ctrls.num_reads::cpu0.data           91613                       # Number of read requests responded to by this memory
system.mem_ctrls.num_reads::total               91636                       # Number of read requests responded to by this memory
system.mem_ctrls.num_writes::writebacks         22890                       # Number of write requests responded to by this memory
system.mem_ctrls.num_writes::total              22890                       # Number of write requests responded to by this memory
system.mem_ctrls.bw_read::cpu0.inst             96415                       # Total read bandwidth from this memory (bytes/s)
system.mem_ctrls.bw_read::cpu0.data         384037456                       # Total read bandwidth from this memory (bytes/s)
system.mem_ctrls.bw_read::total             384133871                       # Total read bandwidth from this memory (bytes/s)
system.mem_ctrls.bw_inst_read::cpu0.inst        96415                       # Instruction read bandwidth from this memory (bytes/s)
system.mem_ctrls.bw_inst_read::total            96415                       # Instruction read bandwidth from this memory (bytes/s)
system.mem_ctrls.bw_write::writebacks        95953821                       # Write bandwidth from this memory (bytes/s)
system.mem_ctrls.bw_write::total             95953821                       # Write bandwidth from this memory (bytes/s)
system.mem_ctrls.bw_total::writebacks        95953821                       # Total bandwidth to/from this memory (bytes/s)
system.mem_ctrls.bw_total::cpu0.inst            96415                       # Total bandwidth to/from this memory (bytes/s)
system.mem_ctrls.bw_total::cpu0.data        384037456                       # Total bandwidth to/from this memory (bytes/s)
system.mem_ctrls.bw_total::total            480087692                       # Total bandwidth to/from this memory (bytes/s)
system.mem_ctrls.readReqs                       91635                       # Number of read requests accepted
system.mem_ctrls.writeReqs                      22890                       # Number of write requests accepted
system.mem_ctrls.readBursts                     91635                       # Number of DRAM read bursts, including those serviced by the write queue
system.mem_ctrls.writeBursts                    22890                       # Number of DRAM write bursts, including those merged in the write queue
system.mem_ctrls.bytesReadDRAM                5864512                       # Total number of bytes read from DRAM
system.mem_ctrls.bytesReadWrQ                     128                       # Total number of bytes read from write queue
system.mem_ctrls.bytesWritten                 1464896                       # Total number of bytes written to DRAM
system.mem_ctrls.bytesReadSys                 5864640                       # Total read bytes from the system interface side
system.mem_ctrls.bytesWrittenSys              1464960                       # Total written bytes from the system interface side
system.mem_ctrls.servicedByWrQ                      2                       # Number of DRAM read bursts serviced by the write queue
system.mem_ctrls.mergedWrBursts                     0                       # Number of DRAM write bursts merged with an existing one
system.mem_ctrls.neitherReadNorWriteReqs            0                       # Number of requests that are neither read nor write
system.mem_ctrls.perBankRdBursts::0              5854                       # Per bank write bursts
system.mem_ctrls.perBankRdBursts::1              5817                       # Per bank write bursts
system.mem_ctrls.perBankRdBursts::2              5877                       # Per bank write bursts
system.mem_ctrls.perBankRdBursts::3              5765                       # Per bank write bursts
system.mem_ctrls.perBankRdBursts::4              5850                       # Per bank write bursts
system.mem_ctrls.perBankRdBursts::5              5775                       # Per bank write bursts
system.mem_ctrls.perBankRdBursts::6              5529                       # Per bank write bursts
system.mem_ctrls.perBankRdBursts::7              5432                       # Per bank write bursts
system.mem_ctrls.perBankRdBursts::8              5328                       # Per bank write bursts
system.mem_ctrls.perBankRdBursts::9              5447                       # Per bank write bursts
system.mem_ctrls.perBankRdBursts::10             5475                       # Per bank write bursts
system.mem_ctrls.perBankRdBursts::11             5590                       # Per bank write bursts
system.mem_ctrls.perBankRdBursts::12             5965                       # Per bank write bursts
system.mem_ctrls.perBankRdBursts::13             6053                       # Per bank write bursts
system.mem_ctrls.perBankRdBursts::14             5975                       # Per bank write bursts
system.mem_ctrls.perBankRdBursts::15             5901                       # Per bank write bursts
system.mem_ctrls.perBankWrBursts::0              1451                       # Per bank write bursts
system.mem_ctrls.perBankWrBursts::1              1358                       # Per bank write bursts
system.mem_ctrls.perBankWrBursts::2              1377                       # Per bank write bursts
system.mem_ctrls.perBankWrBursts::3              1317                       # Per bank write bursts
system.mem_ctrls.perBankWrBursts::4              1363                       # Per bank write bursts
system.mem_ctrls.perBankWrBursts::5              1339                       # Per bank write bursts
system.mem_ctrls.perBankWrBursts::6              1349                       # Per bank write bursts
system.mem_ctrls.perBankWrBursts::7              1422                       # Per bank write bursts
system.mem_ctrls.perBankWrBursts::8              1420                       # Per bank write bursts
system.mem_ctrls.perBankWrBursts::9              1492                       # Per bank write bursts
system.mem_ctrls.perBankWrBursts::10             1504                       # Per bank write bursts
system.mem_ctrls.perBankWrBursts::11             1475                       # Per bank write bursts
system.mem_ctrls.perBankWrBursts::12             1419                       # Per bank write bursts
system.mem_ctrls.perBankWrBursts::13             1510                       # Per bank write bursts
system.mem_ctrls.perBankWrBursts::14             1503                       # Per bank write bursts
system.mem_ctrls.perBankWrBursts::15             1590                       # Per bank write bursts
system.mem_ctrls.numRdRetry                         0                       # Number of times read queue was full causing retry
system.mem_ctrls.numWrRetry                         0                       # Number of times write queue was full causing retry
system.mem_ctrls.totGap                   15267404500                       # Total gap between requests
system.mem_ctrls.readPktSize::0                     0                       # Read request sizes (log2)
system.mem_ctrls.readPktSize::1                     0                       # Read request sizes (log2)
system.mem_ctrls.readPktSize::2                     0                       # Read request sizes (log2)
system.mem_ctrls.readPktSize::3                     0                       # Read request sizes (log2)
system.mem_ctrls.readPktSize::4                     0                       # Read request sizes (log2)
system.mem_ctrls.readPktSize::5                     0                       # Read request sizes (log2)
system.mem_ctrls.readPktSize::6                 91635                       # Read request sizes (log2)
system.mem_ctrls.writePktSize::0                    0                       # Write request sizes (log2)
system.mem_ctrls.writePktSize::1                    0                       # Write request sizes (log2)
system.mem_ctrls.writePktSize::2                    0                       # Write request sizes (log2)
system.mem_ctrls.writePktSize::3                    0                       # Write request sizes (log2)
system.mem_ctrls.writePktSize::4                    0                       # Write request sizes (log2)
system.mem_ctrls.writePktSize::5                    0                       # Write request sizes (log2)
system.mem_ctrls.writePktSize::6                22890                       # Write request sizes (log2)
system.mem_ctrls.rdQLenPdf::0                   68856                       # What read queue length does an incoming req see
system.mem_ctrls.rdQLenPdf::1                   22557                       # What read queue length does an incoming req see
system.mem_ctrls.rdQLenPdf::2                     216                       # What read queue length does an incoming req see
system.mem_ctrls.rdQLenPdf::3                       3                       # What read queue length does an incoming req see
system.mem_ctrls.rdQLenPdf::4                       1                       # What read queue length does an incoming req see
system.mem_ctrls.rdQLenPdf::5                       0                       # What read queue length does an incoming req see
system.mem_ctrls.rdQLenPdf::6                       0                       # What read queue length does an incoming req see
system.mem_ctrls.rdQLenPdf::7                       0                       # What read queue length does an incoming req see
system.mem_ctrls.rdQLenPdf::8                       0                       # What read queue length does an incoming req see
system.mem_ctrls.rdQLenPdf::9                       0                       # What read queue length does an incoming req see
system.mem_ctrls.rdQLenPdf::10                      0                       # What read queue length does an incoming req see
system.mem_ctrls.rdQLenPdf::11                      0                       # What read queue length does an incoming req see
system.mem_ctrls.rdQLenPdf::12                      0                       # What read queue length does an incoming req see
system.mem_ctrls.rdQLenPdf::13                      0                       # What read queue length does an incoming req see
system.mem_ctrls.rdQLenPdf::14                      0                       # What read queue length does an incoming req see
system.mem_ctrls.rdQLenPdf::15                      0                       # What read queue length does an incoming req see
system.mem_ctrls.rdQLenPdf::16                      0                       # What read queue length does an incoming req see
system.mem_ctrls.rdQLenPdf::17                      0                       # What read queue length does an incoming req see
system.mem_ctrls.rdQLenPdf::18                      0                       # What read queue length does an incoming req see
system.mem_ctrls.rdQLenPdf::19                      0                       # What read queue length does an incoming req see
system.mem_ctrls.rdQLenPdf::20                      0                       # What read queue length does an incoming req see
system.mem_ctrls.rdQLenPdf::21                      0                       # What read queue length does an incoming req see
system.mem_ctrls.rdQLenPdf::22                      0                       # What read queue length does an incoming req see
system.mem_ctrls.rdQLenPdf::23                      0                       # What read queue length does an incoming req see
system.mem_ctrls.rdQLenPdf::24                      0                       # What read queue length does an incoming req see
system.mem_ctrls.rdQLenPdf::25                      0                       # What read queue length does an incoming req see
system.mem_ctrls.rdQLenPdf::26                      0                       # What read queue length does an incoming req see
system.mem_ctrls.rdQLenPdf::27                      0                       # What read queue length does an incoming req see
system.mem_ctrls.rdQLenPdf::28                      0                       # What read queue length does an incoming req see
system.mem_ctrls.rdQLenPdf::29                      0                       # What read queue length does an incoming req see
system.mem_ctrls.rdQLenPdf::30                      0                       # What read queue length does an incoming req see
system.mem_ctrls.rdQLenPdf::31                      0                       # What read queue length does an incoming req see
system.mem_ctrls.wrQLenPdf::0                       0                       # What write queue length does an incoming req see
system.mem_ctrls.wrQLenPdf::1                       0                       # What write queue length does an incoming req see
system.mem_ctrls.wrQLenPdf::2                       0                       # What write queue length does an incoming req see
system.mem_ctrls.wrQLenPdf::3                       0                       # What write queue length does an incoming req see
system.mem_ctrls.wrQLenPdf::4                       0                       # What write queue length does an incoming req see
system.mem_ctrls.wrQLenPdf::5                       0                       # What write queue length does an incoming req see
system.mem_ctrls.wrQLenPdf::6                       0                       # What write queue length does an incoming req see
system.mem_ctrls.wrQLenPdf::7                       0                       # What write queue length does an incoming req see
system.mem_ctrls.wrQLenPdf::8                       0                       # What write queue length does an incoming req see
system.mem_ctrls.wrQLenPdf::9                       0                       # What write queue length does an incoming req see
system.mem_ctrls.wrQLenPdf::10                      0                       # What write queue length does an incoming req see
system.mem_ctrls.wrQLenPdf::11                      0                       # What write queue length does an incoming req see
system.mem_ctrls.wrQLenPdf::12                      0                       # What write queue length does an incoming req see
system.mem_ctrls.wrQLenPdf::13                      0                       # What write queue length does an incoming req see
system.mem_ctrls.wrQLenPdf::14                      0                       # What write queue length does an incoming req see
system.mem_ctrls.wrQLenPdf::15                     62                       # What write queue length does an incoming req see
system.mem_ctrls.wrQLenPdf::16                     72                       # What write queue length does an incoming req see
system.mem_ctrls.wrQLenPdf::17                    992                       # What write queue length does an incoming req see
system.mem_ctrls.wrQLenPdf::18                   1423                       # What write queue length does an incoming req see
system.mem_ctrls.wrQLenPdf::19                   1423                       # What write queue length does an incoming req see
system.mem_ctrls.wrQLenPdf::20                   1426                       # What write queue length does an incoming req see
system.mem_ctrls.wrQLenPdf::21                   1425                       # What write queue length does an incoming req see
system.mem_ctrls.wrQLenPdf::22                   1427                       # What write queue length does an incoming req see
system.mem_ctrls.wrQLenPdf::23                   1426                       # What write queue length does an incoming req see
system.mem_ctrls.wrQLenPdf::24                   1431                       # What write queue length does an incoming req see
system.mem_ctrls.wrQLenPdf::25                   1430                       # What write queue length does an incoming req see
system.mem_ctrls.wrQLenPdf::26                   1432                       # What write queue length does an incoming req see
system.mem_ctrls.wrQLenPdf::27                   1435                       # What write queue length does an incoming req see
system.mem_ctrls.wrQLenPdf::28                   1436                       # What write queue length does an incoming req see
system.mem_ctrls.wrQLenPdf::29                   1442                       # What write queue length does an incoming req see
system.mem_ctrls.wrQLenPdf::30                   1437                       # What write queue length does an incoming req see
system.mem_ctrls.wrQLenPdf::31                   1428                       # What write queue length does an incoming req see
system.mem_ctrls.wrQLenPdf::32                   1742                       # What write queue length does an incoming req see
system.mem_ctrls.wrQLenPdf::33                      1                       # What write queue length does an incoming req see
system.mem_ctrls.wrQLenPdf::34                      0                       # What write queue length does an incoming req see
system.mem_ctrls.wrQLenPdf::35                      0                       # What write queue length does an incoming req see
system.mem_ctrls.wrQLenPdf::36                      0                       # What write queue length does an incoming req see
system.mem_ctrls.wrQLenPdf::37                      0                       # What write queue length does an incoming req see
system.mem_ctrls.wrQLenPdf::38                      0                       # What write queue length does an incoming req see
system.mem_ctrls.wrQLenPdf::39                      0                       # What write queue length does an incoming req see
system.mem_ctrls.wrQLenPdf::40                      0                       # What write queue length does an incoming req see
system.mem_ctrls.wrQLenPdf::41                      0                       # What write queue length does an incoming req see
system.mem_ctrls.wrQLenPdf::42                      0                       # What write queue length does an incoming req see
system.mem_ctrls.wrQLenPdf::43                      0                       # What write queue length does an incoming req see
system.mem_ctrls.wrQLenPdf::44                      0                       # What write queue length does an incoming req see
system.mem_ctrls.wrQLenPdf::45                      0                       # What write queue length does an incoming req see
system.mem_ctrls.wrQLenPdf::46                      0                       # What write queue length does an incoming req see
system.mem_ctrls.wrQLenPdf::47                      0                       # What write queue length does an incoming req see
system.mem_ctrls.wrQLenPdf::48                      0                       # What write queue length does an incoming req see
system.mem_ctrls.wrQLenPdf::49                      0                       # What write queue length does an incoming req see
system.mem_ctrls.wrQLenPdf::50                      0                       # What write queue length does an incoming req see
system.mem_ctrls.wrQLenPdf::51                      0                       # What write queue length does an incoming req see
system.mem_ctrls.wrQLenPdf::52                      0                       # What write queue length does an incoming req see
system.mem_ctrls.wrQLenPdf::53                      0                       # What write queue length does an incoming req see
system.mem_ctrls.wrQLenPdf::54                      0                       # What write queue length does an incoming req see
system.mem_ctrls.wrQLenPdf::55                      0                       # What write queue length does an incoming req see
system.mem_ctrls.wrQLenPdf::56                      0                       # What write queue length does an incoming req see
system.mem_ctrls.wrQLenPdf::57                      0                       # What write queue length does an incoming req see
system.mem_ctrls.wrQLenPdf::58                      0                       # What write queue length does an incoming req see
system.mem_ctrls.wrQLenPdf::59                      0                       # What write queue length does an incoming req see
system.mem_ctrls.wrQLenPdf::60                      0                       # What write queue length does an incoming req see
system.mem_ctrls.wrQLenPdf::61                      0                       # What write queue length does an incoming req see
system.mem_ctrls.wrQLenPdf::62                      0                       # What write queue length does an incoming req see
system.mem_ctrls.wrQLenPdf::63                      0                       # What write queue length does an incoming req see
system.mem_ctrls.bytesPerActivate::samples        28470                       # Bytes accessed per row activation
system.mem_ctrls.bytesPerActivate::mean    257.438707                       # Bytes accessed per row activation
system.mem_ctrls.bytesPerActivate::gmean   158.992320                       # Bytes accessed per row activation
system.mem_ctrls.bytesPerActivate::stdev   280.485971                       # Bytes accessed per row activation
system.mem_ctrls.bytesPerActivate::0-127        11287     39.65%     39.65% # Bytes accessed per row activation
system.mem_ctrls.bytesPerActivate::128-255         7952     27.93%     67.58% # Bytes accessed per row activation
system.mem_ctrls.bytesPerActivate::256-383         2882     10.12%     77.70% # Bytes accessed per row activation
system.mem_ctrls.bytesPerActivate::384-511         1080      3.79%     81.49% # Bytes accessed per row activation
system.mem_ctrls.bytesPerActivate::512-639         1172      4.12%     85.61% # Bytes accessed per row activation
system.mem_ctrls.bytesPerActivate::640-767         1109      3.90%     89.50% # Bytes accessed per row activation
system.mem_ctrls.bytesPerActivate::768-895         1075      3.78%     93.28% # Bytes accessed per row activation
system.mem_ctrls.bytesPerActivate::896-1023          278      0.98%     94.26% # Bytes accessed per row activation
system.mem_ctrls.bytesPerActivate::1024-1151         1635      5.74%    100.00% # Bytes accessed per row activation
system.mem_ctrls.bytesPerActivate::total        28470                       # Bytes accessed per row activation
system.mem_ctrls.rdPerTurnAround::samples         1421                       # Reads before turning the bus around for writes
system.mem_ctrls.rdPerTurnAround::mean      64.467980                       # Reads before turning the bus around for writes
system.mem_ctrls.rdPerTurnAround::gmean     21.705095                       # Reads before turning the bus around for writes
system.mem_ctrls.rdPerTurnAround::stdev    480.442369                       # Reads before turning the bus around for writes
system.mem_ctrls.rdPerTurnAround::0-511          1404     98.80%     98.80% # Reads before turning the bus around for writes
system.mem_ctrls.rdPerTurnAround::512-1023            4      0.28%     99.09% # Reads before turning the bus around for writes
system.mem_ctrls.rdPerTurnAround::1536-2047            3      0.21%     99.30% # Reads before turning the bus around for writes
system.mem_ctrls.rdPerTurnAround::2048-2559            1      0.07%     99.37% # Reads before turning the bus around for writes
system.mem_ctrls.rdPerTurnAround::2560-3071            1      0.07%     99.44% # Reads before turning the bus around for writes
system.mem_ctrls.rdPerTurnAround::3072-3583            3      0.21%     99.65% # Reads before turning the bus around for writes
system.mem_ctrls.rdPerTurnAround::3584-4095            2      0.14%     99.79% # Reads before turning the bus around for writes
system.mem_ctrls.rdPerTurnAround::4608-5119            1      0.07%     99.86% # Reads before turning the bus around for writes
system.mem_ctrls.rdPerTurnAround::5120-5631            1      0.07%     99.93% # Reads before turning the bus around for writes
system.mem_ctrls.rdPerTurnAround::13824-14335            1      0.07%    100.00% # Reads before turning the bus around for writes
system.mem_ctrls.rdPerTurnAround::total          1421                       # Reads before turning the bus around for writes
system.mem_ctrls.wrPerTurnAround::samples         1421                       # Writes before turning the bus around for reads
system.mem_ctrls.wrPerTurnAround::mean      16.107671                       # Writes before turning the bus around for reads
system.mem_ctrls.wrPerTurnAround::gmean     16.101301                       # Writes before turning the bus around for reads
system.mem_ctrls.wrPerTurnAround::stdev      0.472129                       # Writes before turning the bus around for reads
system.mem_ctrls.wrPerTurnAround::16             1346     94.72%     94.72% # Writes before turning the bus around for reads
system.mem_ctrls.wrPerTurnAround::17                8      0.56%     95.29% # Writes before turning the bus around for reads
system.mem_ctrls.wrPerTurnAround::18               57      4.01%     99.30% # Writes before turning the bus around for reads
system.mem_ctrls.wrPerTurnAround::19                9      0.63%     99.93% # Writes before turning the bus around for reads
system.mem_ctrls.wrPerTurnAround::20                1      0.07%    100.00% # Writes before turning the bus around for reads
system.mem_ctrls.wrPerTurnAround::total          1421                       # Writes before turning the bus around for reads
system.mem_ctrls.totQLat                   1819438000                       # Total ticks spent queuing
system.mem_ctrls.totMemAccLat              3537556750                       # Total ticks spent from burst creation until serviced by the DRAM
system.mem_ctrls.totBusLat                  458165000                       # Total ticks spent in databus transfers
system.mem_ctrls.avgQLat                     19855.71                       # Average queueing delay per DRAM burst
system.mem_ctrls.avgBusLat                    5000.00                       # Average bus latency per DRAM burst
system.mem_ctrls.avgMemAccLat                38605.71                       # Average memory access latency per DRAM burst
system.mem_ctrls.avgRdBW                       384.12                       # Average DRAM read bandwidth in MiByte/s
system.mem_ctrls.avgWrBW                        95.95                       # Average achieved write bandwidth in MiByte/s
system.mem_ctrls.avgRdBWSys                    384.13                       # Average system read bandwidth in MiByte/s
system.mem_ctrls.avgWrBWSys                     95.95                       # Average system write bandwidth in MiByte/s
system.mem_ctrls.peakBW                      12800.00                       # Theoretical peak bandwidth in MiByte/s
system.mem_ctrls.busUtil                         3.75                       # Data bus utilization in percentage
system.mem_ctrls.busUtilRead                     3.00                       # Data bus utilization in percentage for reads
system.mem_ctrls.busUtilWrite                    0.75                       # Data bus utilization in percentage for writes
system.mem_ctrls.avgRdQLen                       1.20                       # Average read queue length when enqueuing
system.mem_ctrls.avgWrQLen                      25.50                       # Average write queue length when enqueuing
system.mem_ctrls.readRowHits                    66646                       # Number of row buffer hits during reads
system.mem_ctrls.writeRowHits                   19404                       # Number of row buffer hits during writes
system.mem_ctrls.readRowHitRate                 72.73                       # Row buffer hit rate for reads
system.mem_ctrls.writeRowHitRate                84.77                       # Row buffer hit rate for writes
system.mem_ctrls.avgGap                     133310.67                       # Average gap between requests
system.mem_ctrls.pageHitRate                    75.14                       # Row buffer hit rate, read and write combined
system.mem_ctrls_0.actEnergy                 94854900                       # Energy for activate commands per rank (pJ)
system.mem_ctrls_0.preEnergy                 50405190                       # Energy for precharge commands per rank (pJ)
system.mem_ctrls_0.readEnergy               327718860                       # Energy for read commands per rank (pJ)
system.mem_ctrls_0.writeEnergy               57294720                       # Energy for write commands per rank (pJ)
system.mem_ctrls_0.refreshEnergy         1160440320.000000                       # Energy for refresh commands per rank (pJ)
system.mem_ctrls_0.actBackEnergy            875537100                       # Energy for active background per rank (pJ)
system.mem_ctrls_0.preBackEnergy             35779680                       # Energy for precharge background per rank (pJ)
system.mem_ctrls_0.actPowerDownEnergy      5404158600                       # Energy for active power-down per rank (pJ)
system.mem_ctrls_0.prePowerDownEnergy       244105920                       # Energy for precharge power-down per rank (pJ)
system.mem_ctrls_0.selfRefreshEnergy        199041480                       # Energy for self refresh per rank (pJ)
system.mem_ctrls_0.totalEnergy             8449336770                       # Total energy per rank (pJ)
system.mem_ctrls_0.averagePower            553.425449                       # Core power per rank (mW)
system.mem_ctrls_0.totalIdleTime          13254439000                       # Total Idle time Per DRAM Rank
system.mem_ctrls_0.memoryStateTime::IDLE     19241750                       # Time in different power states
system.mem_ctrls_0.memoryStateTime::REF     491048000                       # Time in different power states
system.mem_ctrls_0.memoryStateTime::SREF    767215000                       # Time in different power states
system.mem_ctrls_0.memoryStateTime::PRE_PDN    635728750                       # Time in different power states
system.mem_ctrls_0.memoryStateTime::ACT    1502574250                       # Time in different power states
system.mem_ctrls_0.memoryStateTime::ACT_PDN  11851536375                       # Time in different power states
system.mem_ctrls_1.actEnergy                108435180                       # Energy for activate commands per rank (pJ)
system.mem_ctrls_1.preEnergy                 57638460                       # Energy for precharge commands per rank (pJ)
system.mem_ctrls_1.readEnergy               326547900                       # Energy for read commands per rank (pJ)
system.mem_ctrls_1.writeEnergy               62185860                       # Energy for write commands per rank (pJ)
system.mem_ctrls_1.refreshEnergy         1176420960.000000                       # Energy for refresh commands per rank (pJ)
system.mem_ctrls_1.actBackEnergy            894615570                       # Energy for active background per rank (pJ)
system.mem_ctrls_1.preBackEnergy             40309440                       # Energy for precharge background per rank (pJ)
system.mem_ctrls_1.actPowerDownEnergy      5386866510                       # Energy for active power-down per rank (pJ)
system.mem_ctrls_1.prePowerDownEnergy       294668160                       # Energy for precharge power-down per rank (pJ)
system.mem_ctrls_1.selfRefreshEnergy        168086700                       # Energy for self refresh per rank (pJ)
system.mem_ctrls_1.totalEnergy             8515846860                       # Total energy per rank (pJ)
system.mem_ctrls_1.averagePower            557.781811                       # Core power per rank (mW)
system.mem_ctrls_1.totalIdleTime          13196343000                       # Total Idle time Per DRAM Rank
system.mem_ctrls_1.memoryStateTime::IDLE     21439000                       # Time in different power states
system.mem_ctrls_1.memoryStateTime::REF     497868000                       # Time in different power states
system.mem_ctrls_1.memoryStateTime::SREF    619663500                       # Time in different power states
system.mem_ctrls_1.memoryStateTime::PRE_PDN    767489750                       # Time in different power states
system.mem_ctrls_1.memoryStateTime::ACT    1548104750                       # Time in different power states
system.mem_ctrls_1.memoryStateTime::ACT_PDN  11812779125                       # Time in different power states
system.pwrStateResidencyTicks::UNDEFINED  15267344125                       # Cumulative time (in ticks) in various power states
system.cpu0.branchPred.lookups                7687288                       # Number of BP lookups
system.cpu0.branchPred.condPredicted          7687288                       # Number of conditional branches predicted
system.cpu0.branchPred.condIncorrect           165856                       # Number of conditional branches incorrect
system.cpu0.branchPred.BTBLookups             6514788                       # Number of BTB lookups
system.cpu0.branchPred.BTBHits                      0                       # Number of BTB hits
system.cpu0.branchPred.BTBCorrect                   0                       # Number of correct BTB predictions (this stat may not work properly.
system.cpu0.branchPred.BTBHitPct             0.000000                       # BTB Hit Percentage
system.cpu0.branchPred.usedRAS                 575187                       # Number of times the RAS was used to get a target.
system.cpu0.branchPred.RASInCorrect              8828                       # Number of incorrect RAS predictions.
system.cpu0.branchPred.indirectLookups        6514788                       # Number of indirect predictor lookups.
system.cpu0.branchPred.indirectHits           3928461                       # Number of indirect target hits.
system.cpu0.branchPred.indirectMisses         2586327                       # Number of indirect misses.
system.cpu0.branchPredindirectMispredicted        36208                       # Number of mispredicted indirect branches.
system.cpu_voltage_domain.voltage                   1                       # Voltage in Volts
system.cpu_clk_domain.clock                       500                       # Clock period in ticks
system.cpu0.dtb.walker.pwrStateResidencyTicks::UNDEFINED  15267344125                       # Cumulative time (in ticks) in various power states
system.cpu0.dtb.rdAccesses                    9392630                       # TLB accesses on read requests
system.cpu0.dtb.wrAccesses                    5079832                       # TLB accesses on write requests
system.cpu0.dtb.rdMisses                        60266                       # TLB misses on read requests
system.cpu0.dtb.wrMisses                         5942                       # TLB misses on write requests
system.cpu0.apic_clk_domain.clock                8000                       # Clock period in ticks
system.cpu0.interrupts.pwrStateResidencyTicks::UNDEFINED  15267344125                       # Cumulative time (in ticks) in various power states
system.cpu0.itb.walker.pwrStateResidencyTicks::UNDEFINED  15267344125                       # Cumulative time (in ticks) in various power states
system.cpu0.itb.rdAccesses                          0                       # TLB accesses on read requests
system.cpu0.itb.wrAccesses                    6249897                       # TLB accesses on write requests
system.cpu0.itb.rdMisses                            0                       # TLB misses on read requests
system.cpu0.itb.wrMisses                            3                       # TLB misses on write requests
system.cpu0.workload.numSyscalls                    1                       # Number of system calls
system.cpu0.pwrStateResidencyTicks::ON    15267344125                       # Cumulative time (in ticks) in various power states
system.cpu0.numCycles                        30534688                       # number of cpu cycles simulated
system.cpu0.numWorkItemsStarted                     0                       # number of work items this cpu started
system.cpu0.numWorkItemsCompleted                   0                       # number of work items this cpu completed
system.cpu0.fetch.icacheStallCycles           6327547                       # Number of cycles fetch is stalled on an Icache miss
system.cpu0.fetch.Insts                      42731772                       # Number of instructions fetch has processed
system.cpu0.fetch.Branches                    7687288                       # Number of branches that fetch encountered
system.cpu0.fetch.predictedBranches           4503648                       # Number of branches that fetch has predicted taken
system.cpu0.fetch.Cycles                     24039870                       # Number of cycles fetch has run and was not squashing or blocked
system.cpu0.fetch.SquashCycles                 332764                       # Number of cycles fetch has spent squashing
system.cpu0.fetch.MiscStallCycles                   1                       # Number of cycles fetch has spent waiting on interrupts, or bad addresses, or out of MSHRs
system.cpu0.fetch.PendingTrapStallCycles           11                       # Number of stall cycles due to pending traps
system.cpu0.fetch.CacheLines                  6249894                       # Number of cache lines fetched
system.cpu0.fetch.IcacheSquashes                73380                       # Number of outstanding Icache misses that were squashed
system.cpu0.fetch.rateDist::samples          30533811                       # Number of instructions fetched each cycle (Total)
system.cpu0.fetch.rateDist::mean             2.672716                       # Number of instructions fetched each cycle (Total)
system.cpu0.fetch.rateDist::stdev            3.395516                       # Number of instructions fetched each cycle (Total)
system.cpu0.fetch.rateDist::underflows              0      0.00%      0.00% # Number of instructions fetched each cycle (Total)
system.cpu0.fetch.rateDist::0                17285085     56.61%     56.61% # Number of instructions fetched each cycle (Total)
system.cpu0.fetch.rateDist::1                  527718      1.73%     58.34% # Number of instructions fetched each cycle (Total)
system.cpu0.fetch.rateDist::2                  567225      1.86%     60.20% # Number of instructions fetched each cycle (Total)
system.cpu0.fetch.rateDist::3                 1525869      5.00%     65.19% # Number of instructions fetched each cycle (Total)
system.cpu0.fetch.rateDist::4                  808720      2.65%     67.84% # Number of instructions fetched each cycle (Total)
system.cpu0.fetch.rateDist::5                  962399      3.15%     70.99% # Number of instructions fetched each cycle (Total)
system.cpu0.fetch.rateDist::6                 1392113      4.56%     75.55% # Number of instructions fetched each cycle (Total)
system.cpu0.fetch.rateDist::7                  748580      2.45%     78.00% # Number of instructions fetched each cycle (Total)
system.cpu0.fetch.rateDist::8                 6716102     22.00%    100.00% # Number of instructions fetched each cycle (Total)
system.cpu0.fetch.rateDist::overflows               0      0.00%    100.00% # Number of instructions fetched each cycle (Total)
system.cpu0.fetch.rateDist::min_value               0                       # Number of instructions fetched each cycle (Total)
system.cpu0.fetch.rateDist::max_value               8                       # Number of instructions fetched each cycle (Total)
system.cpu0.fetch.rateDist::total            30533811                       # Number of instructions fetched each cycle (Total)
system.cpu0.fetch.branchRate                 0.251756                       # Number of branch fetches per cycle
system.cpu0.fetch.rate                       1.399450                       # Number of inst fetches per cycle
system.cpu0.decode.IdleCycles                 5952477                       # Number of cycles decode is idle
system.cpu0.decode.BlockedCycles             11802129                       # Number of cycles decode is blocked
system.cpu0.decode.RunCycles                 12118439                       # Number of cycles decode is running
system.cpu0.decode.UnblockCycles               494384                       # Number of cycles decode is unblocking
system.cpu0.decode.SquashCycles                166382                       # Number of cycles decode is squashing
system.cpu0.decode.DecodedInsts              80386564                       # Number of instructions handled by decode
system.cpu0.rename.SquashCycles                166382                       # Number of cycles rename is squashing
system.cpu0.rename.IdleCycles                 6211334                       # Number of cycles rename is idle
system.cpu0.rename.BlockCycles                4074385                       # Number of cycles rename is blocking
system.cpu0.rename.serializeStallCycles           286                       # count of cycles rename stalled for serializing inst
system.cpu0.rename.RunCycles                 12330976                       # Number of cycles rename is running
system.cpu0.rename.UnblockCycles              7750448                       # Number of cycles rename is unblocking
system.cpu0.rename.RenamedInsts              79857146                       # Number of instructions processed by rename
system.cpu0.rename.ROBFullEvents                53518                       # Number of times rename has blocked due to ROB full
system.cpu0.rename.IQFullEvents               1281474                       # Number of times rename has blocked due to IQ full
system.cpu0.rename.LQFullEvents               4969898                       # Number of times rename has blocked due to LQ full
system.cpu0.rename.SQFullEvents               2445113                       # Number of times rename has blocked due to SQ full
system.cpu0.rename.RenamedOperands           97340167                       # Number of destination operands rename has renamed
system.cpu0.rename.RenameLookups            203015519                       # Number of register rename lookups that rename has made
system.cpu0.rename.int_rename_lookups       126988968                       # Number of integer rename lookups
system.cpu0.rename.fp_rename_lookups              104                       # Number of floating rename lookups
system.cpu0.rename.CommittedMaps             88298067                       # Number of HB maps that are committed
system.cpu0.rename.UndoneMaps                 9042068                       # Number of HB maps that are undone due to squashing
system.cpu0.rename.serializingInsts                31                       # count of serializing insts renamed
system.cpu0.rename.tempSerializingInsts            32                       # count of temporary serializing insts renamed
system.cpu0.rename.skidInsts                  2304029                       # count of insts added to the skid buffer
system.cpu0.memDep0.insertedLoads             9554208                       # Number of loads inserted to the mem dependence unit.
system.cpu0.memDep0.insertedStores            5249437                       # Number of stores inserted to the mem dependence unit.
system.cpu0.memDep0.conflictingLoads            33147                       # Number of conflicting loads.
system.cpu0.memDep0.conflictingStores          637602                       # Number of conflicting stores.
system.cpu0.iq.iqInstsAdded                  77999060                       # Number of instructions added to the IQ (excludes non-spec)
system.cpu0.iq.iqNonSpecInstsAdded               6054                       # Number of non-speculative instructions added to the IQ
system.cpu0.iq.iqInstsIssued                 76235840                       # Number of instructions issued
system.cpu0.iq.iqSquashedInstsIssued            35536                       # Number of squashed instructions issued
system.cpu0.iq.iqSquashedInstsExamined        5474356                       # Number of squashed instructions iterated over during squash; mainly for profiling
system.cpu0.iq.iqSquashedOperandsExamined      7558852                       # Number of squashed operands that are examined and possibly removed from graph
system.cpu0.iq.iqSquashedNonSpecRemoved          6041                       # Number of squashed non-spec instructions that were removed
system.cpu0.iq.issued_per_cycle::samples     30533811                       # Number of insts issued each cycle
system.cpu0.iq.issued_per_cycle::mean        2.496768                       # Number of insts issued each cycle
system.cpu0.iq.issued_per_cycle::stdev       2.463446                       # Number of insts issued each cycle
system.cpu0.iq.issued_per_cycle::underflows            0      0.00%      0.00% # Number of insts issued each cycle
system.cpu0.iq.issued_per_cycle::0           11847864     38.80%     38.80% # Number of insts issued each cycle
system.cpu0.iq.issued_per_cycle::1            1368255      4.48%     43.28% # Number of insts issued each cycle
system.cpu0.iq.issued_per_cycle::2            3330051     10.91%     54.19% # Number of insts issued each cycle
system.cpu0.iq.issued_per_cycle::3            2916676      9.55%     63.74% # Number of insts issued each cycle
system.cpu0.iq.issued_per_cycle::4            2985292      9.78%     73.52% # Number of insts issued each cycle
system.cpu0.iq.issued_per_cycle::5            3744189     12.26%     85.78% # Number of insts issued each cycle
system.cpu0.iq.issued_per_cycle::6            2262305      7.41%     93.19% # Number of insts issued each cycle
system.cpu0.iq.issued_per_cycle::7            1411920      4.62%     97.81% # Number of insts issued each cycle
system.cpu0.iq.issued_per_cycle::8             667259      2.19%    100.00% # Number of insts issued each cycle
system.cpu0.iq.issued_per_cycle::overflows            0      0.00%    100.00% # Number of insts issued each cycle
system.cpu0.iq.issued_per_cycle::min_value            0                       # Number of insts issued each cycle
system.cpu0.iq.issued_per_cycle::max_value            8                       # Number of insts issued each cycle
system.cpu0.iq.issued_per_cycle::total       30533811                       # Number of insts issued each cycle
system.cpu0.iq.fu_full::No_OpClass                  0      0.00%      0.00% # attempts to use FU when none available
system.cpu0.iq.fu_full::IntAlu                 963822     93.12%     93.12% # attempts to use FU when none available
system.cpu0.iq.fu_full::IntMult                     0      0.00%     93.12% # attempts to use FU when none available
system.cpu0.iq.fu_full::IntDiv                      0      0.00%     93.12% # attempts to use FU when none available
system.cpu0.iq.fu_full::FloatAdd                    0      0.00%     93.12% # attempts to use FU when none available
system.cpu0.iq.fu_full::FloatCmp                    0      0.00%     93.12% # attempts to use FU when none available
system.cpu0.iq.fu_full::FloatCvt                    0      0.00%     93.12% # attempts to use FU when none available
system.cpu0.iq.fu_full::FloatMult                   0      0.00%     93.12% # attempts to use FU when none available
system.cpu0.iq.fu_full::FloatMultAcc                0      0.00%     93.12% # attempts to use FU when none available
system.cpu0.iq.fu_full::FloatDiv                    0      0.00%     93.12% # attempts to use FU when none available
system.cpu0.iq.fu_full::FloatMisc                   0      0.00%     93.12% # attempts to use FU when none available
system.cpu0.iq.fu_full::FloatSqrt                   0      0.00%     93.12% # attempts to use FU when none available
system.cpu0.iq.fu_full::SimdAdd                     0      0.00%     93.12% # attempts to use FU when none available
system.cpu0.iq.fu_full::SimdAddAcc                  0      0.00%     93.12% # attempts to use FU when none available
system.cpu0.iq.fu_full::SimdAlu                     0      0.00%     93.12% # attempts to use FU when none available
system.cpu0.iq.fu_full::SimdCmp                     0      0.00%     93.12% # attempts to use FU when none available
system.cpu0.iq.fu_full::SimdCvt                     0      0.00%     93.12% # attempts to use FU when none available
system.cpu0.iq.fu_full::SimdMisc                    0      0.00%     93.12% # attempts to use FU when none available
system.cpu0.iq.fu_full::SimdMult                    0      0.00%     93.12% # attempts to use FU when none available
system.cpu0.iq.fu_full::SimdMultAcc                 0      0.00%     93.12% # attempts to use FU when none available
system.cpu0.iq.fu_full::SimdShift                   0      0.00%     93.12% # attempts to use FU when none available
system.cpu0.iq.fu_full::SimdShiftAcc                0      0.00%     93.12% # attempts to use FU when none available
system.cpu0.iq.fu_full::SimdSqrt                    0      0.00%     93.12% # attempts to use FU when none available
system.cpu0.iq.fu_full::SimdFloatAdd                0      0.00%     93.12% # attempts to use FU when none available
system.cpu0.iq.fu_full::SimdFloatAlu                0      0.00%     93.12% # attempts to use FU when none available
system.cpu0.iq.fu_full::SimdFloatCmp                0      0.00%     93.12% # attempts to use FU when none available
system.cpu0.iq.fu_full::SimdFloatCvt                0      0.00%     93.12% # attempts to use FU when none available
system.cpu0.iq.fu_full::SimdFloatDiv                0      0.00%     93.12% # attempts to use FU when none available
system.cpu0.iq.fu_full::SimdFloatMisc               0      0.00%     93.12% # attempts to use FU when none available
system.cpu0.iq.fu_full::SimdFloatMult               0      0.00%     93.12% # attempts to use FU when none available
system.cpu0.iq.fu_full::SimdFloatMultAcc            0      0.00%     93.12% # attempts to use FU when none available
system.cpu0.iq.fu_full::SimdFloatSqrt               0      0.00%     93.12% # attempts to use FU when none available
system.cpu0.iq.fu_full::MemRead                 43968      4.25%     97.37% # attempts to use FU when none available
system.cpu0.iq.fu_full::MemWrite                27208      2.63%    100.00% # attempts to use FU when none available
system.cpu0.iq.fu_full::FloatMemRead                0      0.00%    100.00% # attempts to use FU when none available
system.cpu0.iq.fu_full::FloatMemWrite               0      0.00%    100.00% # attempts to use FU when none available
system.cpu0.iq.fu_full::IprAccess                   0      0.00%    100.00% # attempts to use FU when none available
system.cpu0.iq.fu_full::InstPrefetch                0      0.00%    100.00% # attempts to use FU when none available
system.cpu0.iq.FU_type_0::No_OpClass            80403      0.11%      0.11% # Type of FU issued
system.cpu0.iq.FU_type_0::IntAlu             61071173     80.11%     80.21% # Type of FU issued
system.cpu0.iq.FU_type_0::IntMult               58531      0.08%     80.29% # Type of FU issued
system.cpu0.iq.FU_type_0::IntDiv               477463      0.63%     80.92% # Type of FU issued
system.cpu0.iq.FU_type_0::FloatAdd                  6      0.00%     80.92% # Type of FU issued
system.cpu0.iq.FU_type_0::FloatCmp                  0      0.00%     80.92% # Type of FU issued
system.cpu0.iq.FU_type_0::FloatCvt                  0      0.00%     80.92% # Type of FU issued
system.cpu0.iq.FU_type_0::FloatMult                 0      0.00%     80.92% # Type of FU issued
system.cpu0.iq.FU_type_0::FloatMultAcc              0      0.00%     80.92% # Type of FU issued
system.cpu0.iq.FU_type_0::FloatDiv                  0      0.00%     80.92% # Type of FU issued
system.cpu0.iq.FU_type_0::FloatMisc                 0      0.00%     80.92% # Type of FU issued
system.cpu0.iq.FU_type_0::FloatSqrt                 0      0.00%     80.92% # Type of FU issued
system.cpu0.iq.FU_type_0::SimdAdd                   0      0.00%     80.92% # Type of FU issued
system.cpu0.iq.FU_type_0::SimdAddAcc                0      0.00%     80.92% # Type of FU issued
system.cpu0.iq.FU_type_0::SimdAlu                   0      0.00%     80.92% # Type of FU issued
system.cpu0.iq.FU_type_0::SimdCmp                   0      0.00%     80.92% # Type of FU issued
system.cpu0.iq.FU_type_0::SimdCvt                   0      0.00%     80.92% # Type of FU issued
system.cpu0.iq.FU_type_0::SimdMisc                  0      0.00%     80.92% # Type of FU issued
system.cpu0.iq.FU_type_0::SimdMult                  0      0.00%     80.92% # Type of FU issued
system.cpu0.iq.FU_type_0::SimdMultAcc               0      0.00%     80.92% # Type of FU issued
system.cpu0.iq.FU_type_0::SimdShift                 0      0.00%     80.92% # Type of FU issued
system.cpu0.iq.FU_type_0::SimdShiftAcc              0      0.00%     80.92% # Type of FU issued
system.cpu0.iq.FU_type_0::SimdSqrt                  0      0.00%     80.92% # Type of FU issued
system.cpu0.iq.FU_type_0::SimdFloatAdd              0      0.00%     80.92% # Type of FU issued
system.cpu0.iq.FU_type_0::SimdFloatAlu              0      0.00%     80.92% # Type of FU issued
system.cpu0.iq.FU_type_0::SimdFloatCmp              0      0.00%     80.92% # Type of FU issued
system.cpu0.iq.FU_type_0::SimdFloatCvt              0      0.00%     80.92% # Type of FU issued
system.cpu0.iq.FU_type_0::SimdFloatDiv              0      0.00%     80.92% # Type of FU issued
system.cpu0.iq.FU_type_0::SimdFloatMisc             0      0.00%     80.92% # Type of FU issued
system.cpu0.iq.FU_type_0::SimdFloatMult             0      0.00%     80.92% # Type of FU issued
system.cpu0.iq.FU_type_0::SimdFloatMultAcc            0      0.00%     80.92% # Type of FU issued
system.cpu0.iq.FU_type_0::SimdFloatSqrt             0      0.00%     80.92% # Type of FU issued
system.cpu0.iq.FU_type_0::MemRead             9433536     12.37%     93.29% # Type of FU issued
system.cpu0.iq.FU_type_0::MemWrite            5114726      6.71%    100.00% # Type of FU issued
system.cpu0.iq.FU_type_0::FloatMemRead              2      0.00%    100.00% # Type of FU issued
system.cpu0.iq.FU_type_0::FloatMemWrite             0      0.00%    100.00% # Type of FU issued
system.cpu0.iq.FU_type_0::IprAccess                 0      0.00%    100.00% # Type of FU issued
system.cpu0.iq.FU_type_0::InstPrefetch              0      0.00%    100.00% # Type of FU issued
system.cpu0.iq.FU_type_0::total              76235840                       # Type of FU issued
system.cpu0.iq.rate                          2.496696                       # Inst issue rate
system.cpu0.iq.fu_busy_cnt                    1034998                       # FU busy when requested
system.cpu0.iq.fu_busy_rate                  0.013576                       # FU busy rate (busy events/executed inst)
system.cpu0.iq.int_inst_queue_reads         184076009                       # Number of integer instruction queue reads
system.cpu0.iq.int_inst_queue_writes         83479931                       # Number of integer instruction queue writes
system.cpu0.iq.int_inst_queue_wakeup_accesses     75850260                       # Number of integer instruction queue wakeup accesses
system.cpu0.iq.fp_inst_queue_reads                 16                       # Number of floating instruction queue reads
system.cpu0.iq.fp_inst_queue_writes                66                       # Number of floating instruction queue writes
system.cpu0.iq.fp_inst_queue_wakeup_accesses            6                       # Number of floating instruction queue wakeup accesses
system.cpu0.iq.vec_inst_queue_reads                 0                       # Number of vector instruction queue reads
system.cpu0.iq.vec_inst_queue_writes                0                       # Number of vector instruction queue writes
system.cpu0.iq.vec_inst_queue_wakeup_accesses            0                       # Number of vector instruction queue wakeup accesses
system.cpu0.iq.int_alu_accesses              77190427                       # Number of integer alu accesses
system.cpu0.iq.fp_alu_accesses                      8                       # Number of floating point alu accesses
system.cpu0.iq.vec_alu_accesses                     0                       # Number of vector alu accesses
system.cpu0.iew.lsq.thread0.forwLoads          859455                       # Number of loads that had data forwarded from stores
system.cpu0.iew.lsq.thread0.invAddrLoads            0                       # Number of loads ignored due to an invalid address
system.cpu0.iew.lsq.thread0.squashedLoads       542201                       # Number of loads squashed
system.cpu0.iew.lsq.thread0.ignoredResponses         1045                       # Number of memory responses ignored because the instruction is squashed
system.cpu0.iew.lsq.thread0.memOrderViolation          527                       # Number of memory ordering violations
system.cpu0.iew.lsq.thread0.squashedStores       356070                       # Number of stores squashed
system.cpu0.iew.lsq.thread0.invAddrSwpfs            0                       # Number of software prefetches ignored due to an invalid address
system.cpu0.iew.lsq.thread0.blockedLoads            0                       # Number of blocked loads due to partial load-store forwarding
system.cpu0.iew.lsq.thread0.rescheduledLoads            1                       # Number of loads that were rescheduled
system.cpu0.iew.lsq.thread0.cacheBlocked           14                       # Number of times an access to memory failed due to the cache being blocked
system.cpu0.iew.iewIdleCycles                       0                       # Number of cycles IEW is idle
system.cpu0.iew.iewSquashCycles                166382                       # Number of cycles IEW is squashing
system.cpu0.iew.iewBlockCycles                1471652                       # Number of cycles IEW is blocking
system.cpu0.iew.iewUnblockCycles               527463                       # Number of cycles IEW is unblocking
system.cpu0.iew.iewDispatchedInsts           78005114                       # Number of instructions dispatched to IQ
system.cpu0.iew.iewDispSquashedInsts              658                       # Number of squashed instructions skipped by dispatch
system.cpu0.iew.iewDispLoadInsts              9554208                       # Number of dispatched load instructions
system.cpu0.iew.iewDispStoreInsts             5249437                       # Number of dispatched store instructions
system.cpu0.iew.iewDispNonSpecInsts              2201                       # Number of dispatched non-speculative instructions
system.cpu0.iew.iewIQFullEvents                  9487                       # Number of times the IQ has become full, causing a stall
system.cpu0.iew.iewLSQFullEvents               515873                       # Number of times the LSQ has become full, causing a stall
system.cpu0.iew.memOrderViolationEvents           527                       # Number of memory order violations
system.cpu0.iew.predictedTakenIncorrect        106604                       # Number of branches that were predicted taken incorrectly
system.cpu0.iew.predictedNotTakenIncorrect        85821                       # Number of branches that were predicted not taken incorrectly
system.cpu0.iew.branchMispredicts              192425                       # Number of branch mispredicts detected at execute
system.cpu0.iew.iewExecutedInsts             76016589                       # Number of executed instructions
system.cpu0.iew.iewExecLoadInsts              9392022                       # Number of load instructions executed
system.cpu0.iew.iewExecSquashedInsts           219251                       # Number of squashed instructions skipped in execute
system.cpu0.iew.exec_swp                            0                       # number of swp insts executed
system.cpu0.iew.exec_nop                            0                       # number of nop insts executed
system.cpu0.iew.exec_refs                    14471853                       # number of memory reference insts executed
system.cpu0.iew.exec_branches                 7076058                       # Number of branches executed
system.cpu0.iew.exec_stores                   5079831                       # Number of stores executed
system.cpu0.iew.exec_rate                    2.489516                       # Inst execution rate
system.cpu0.iew.wb_sent                      75977656                       # cumulative count of insts sent to commit
system.cpu0.iew.wb_count                     75850266                       # cumulative count of insts written-back
system.cpu0.iew.wb_producers                 58242150                       # num instructions producing a value
system.cpu0.iew.wb_consumers                 99334048                       # num instructions consuming a value
system.cpu0.iew.wb_rate                      2.484069                       # insts written-back per cycle
system.cpu0.iew.wb_fanout                    0.586326                       # average fanout of values written-back
system.cpu0.commit.commitSquashedInsts        5474416                       # The number of squashed insts skipped by commit
system.cpu0.commit.commitNonSpecStalls             13                       # The number of times commit has been forced to stall to communicate backwards
system.cpu0.commit.branchMispredicts           165857                       # The number of times a branch was mispredicted
system.cpu0.commit.committed_per_cycle::samples     29757034                       # Number of insts commited each cycle
system.cpu0.commit.committed_per_cycle::mean     2.437430                       # Number of insts commited each cycle
system.cpu0.commit.committed_per_cycle::stdev     2.983209                       # Number of insts commited each cycle
system.cpu0.commit.committed_per_cycle::underflows            0      0.00%      0.00% # Number of insts commited each cycle
system.cpu0.commit.committed_per_cycle::0     13234496     44.48%     44.48% # Number of insts commited each cycle
system.cpu0.commit.committed_per_cycle::1      3384244     11.37%     55.85% # Number of insts commited each cycle
system.cpu0.commit.committed_per_cycle::2      1869492      6.28%     62.13% # Number of insts commited each cycle
system.cpu0.commit.committed_per_cycle::3      2911155      9.78%     71.91% # Number of insts commited each cycle
system.cpu0.commit.committed_per_cycle::4      1100536      3.70%     75.61% # Number of insts commited each cycle
system.cpu0.commit.committed_per_cycle::5      1340894      4.51%     80.12% # Number of insts commited each cycle
system.cpu0.commit.committed_per_cycle::6       607984      2.04%     82.16% # Number of insts commited each cycle
system.cpu0.commit.committed_per_cycle::7       546374      1.84%     84.00% # Number of insts commited each cycle
system.cpu0.commit.committed_per_cycle::8      4761859     16.00%    100.00% # Number of insts commited each cycle
system.cpu0.commit.committed_per_cycle::overflows            0      0.00%    100.00% # Number of insts commited each cycle
system.cpu0.commit.committed_per_cycle::min_value            0                       # Number of insts commited each cycle
system.cpu0.commit.committed_per_cycle::max_value            8                       # Number of insts commited each cycle
system.cpu0.commit.committed_per_cycle::total     29757034                       # Number of insts commited each cycle
system.cpu0.commit.committedInsts            37876797                       # Number of instructions committed
system.cpu0.commit.committedOps              72530701                       # Number of ops (including micro ops) committed
system.cpu0.commit.swp_count                        0                       # Number of s/w prefetches committed
system.cpu0.commit.refs                      13905379                       # Number of memory references committed
system.cpu0.commit.loads                      9012031                       # Number of loads committed
system.cpu0.commit.membars                          8                       # Number of memory barriers committed
system.cpu0.commit.branches                   6819423                       # Number of branches committed
system.cpu0.commit.vec_insts                        0                       # Number of committed Vector instructions.
system.cpu0.commit.fp_insts                         0                       # Number of committed floating point instructions.
system.cpu0.commit.int_insts                 72369841                       # Number of committed integer instructions.
system.cpu0.commit.function_calls              507738                       # Number of function calls committed.
system.cpu0.commit.op_class_0::No_OpClass        68506      0.09%      0.09% # Class of committed instruction
system.cpu0.commit.op_class_0::IntAlu        58057261     80.05%     80.14% # Class of committed instruction
system.cpu0.commit.op_class_0::IntMult          56673      0.08%     80.22% # Class of committed instruction
system.cpu0.commit.op_class_0::IntDiv          442882      0.61%     80.83% # Class of committed instruction
system.cpu0.commit.op_class_0::FloatAdd             0      0.00%     80.83% # Class of committed instruction
system.cpu0.commit.op_class_0::FloatCmp             0      0.00%     80.83% # Class of committed instruction
system.cpu0.commit.op_class_0::FloatCvt             0      0.00%     80.83% # Class of committed instruction
system.cpu0.commit.op_class_0::FloatMult            0      0.00%     80.83% # Class of committed instruction
system.cpu0.commit.op_class_0::FloatMultAcc            0      0.00%     80.83% # Class of committed instruction
system.cpu0.commit.op_class_0::FloatDiv             0      0.00%     80.83% # Class of committed instruction
system.cpu0.commit.op_class_0::FloatMisc            0      0.00%     80.83% # Class of committed instruction
system.cpu0.commit.op_class_0::FloatSqrt            0      0.00%     80.83% # Class of committed instruction
system.cpu0.commit.op_class_0::SimdAdd              0      0.00%     80.83% # Class of committed instruction
system.cpu0.commit.op_class_0::SimdAddAcc            0      0.00%     80.83% # Class of committed instruction
system.cpu0.commit.op_class_0::SimdAlu              0      0.00%     80.83% # Class of committed instruction
system.cpu0.commit.op_class_0::SimdCmp              0      0.00%     80.83% # Class of committed instruction
system.cpu0.commit.op_class_0::SimdCvt              0      0.00%     80.83% # Class of committed instruction
system.cpu0.commit.op_class_0::SimdMisc             0      0.00%     80.83% # Class of committed instruction
system.cpu0.commit.op_class_0::SimdMult             0      0.00%     80.83% # Class of committed instruction
system.cpu0.commit.op_class_0::SimdMultAcc            0      0.00%     80.83% # Class of committed instruction
system.cpu0.commit.op_class_0::SimdShift            0      0.00%     80.83% # Class of committed instruction
system.cpu0.commit.op_class_0::SimdShiftAcc            0      0.00%     80.83% # Class of committed instruction
system.cpu0.commit.op_class_0::SimdSqrt             0      0.00%     80.83% # Class of committed instruction
system.cpu0.commit.op_class_0::SimdFloatAdd            0      0.00%     80.83% # Class of committed instruction
system.cpu0.commit.op_class_0::SimdFloatAlu            0      0.00%     80.83% # Class of committed instruction
system.cpu0.commit.op_class_0::SimdFloatCmp            0      0.00%     80.83% # Class of committed instruction
system.cpu0.commit.op_class_0::SimdFloatCvt            0      0.00%     80.83% # Class of committed instruction
system.cpu0.commit.op_class_0::SimdFloatDiv            0      0.00%     80.83% # Class of committed instruction
system.cpu0.commit.op_class_0::SimdFloatMisc            0      0.00%     80.83% # Class of committed instruction
system.cpu0.commit.op_class_0::SimdFloatMult            0      0.00%     80.83% # Class of committed instruction
system.cpu0.commit.op_class_0::SimdFloatMultAcc            0      0.00%     80.83% # Class of committed instruction
system.cpu0.commit.op_class_0::SimdFloatSqrt            0      0.00%     80.83% # Class of committed instruction
system.cpu0.commit.op_class_0::MemRead        9012031     12.43%     93.25% # Class of committed instruction
system.cpu0.commit.op_class_0::MemWrite       4893348      6.75%    100.00% # Class of committed instruction
system.cpu0.commit.op_class_0::FloatMemRead            0      0.00%    100.00% # Class of committed instruction
system.cpu0.commit.op_class_0::FloatMemWrite            0      0.00%    100.00% # Class of committed instruction
system.cpu0.commit.op_class_0::IprAccess            0      0.00%    100.00% # Class of committed instruction
system.cpu0.commit.op_class_0::InstPrefetch            0      0.00%    100.00% # Class of committed instruction
system.cpu0.commit.op_class_0::total         72530701                       # Class of committed instruction
system.cpu0.commit.bw_lim_events              4761859                       # number cycles where commit BW limit reached
system.cpu0.rob.rob_reads                   103000292                       # The number of ROB reads
system.cpu0.rob.rob_writes                  156789540                       # The number of ROB writes
system.cpu0.timesIdled                              7                       # Number of times that the entire CPU went into an idle state and unscheduled itself
system.cpu0.idleCycles                            877                       # Total number of cycles that the CPU has spent unscheduled due to idling
system.cpu0.committedInsts                   37876797                       # Number of Instructions Simulated
system.cpu0.committedOps                     72530701                       # Number of Ops (including micro ops) Simulated
system.cpu0.cpi                              0.806158                       # CPI: Cycles Per Instruction
system.cpu0.cpi_total                        0.806158                       # CPI: Total CPI of All Threads
system.cpu0.ipc                              1.240451                       # IPC: Instructions Per Cycle
system.cpu0.ipc_total                        1.240451                       # IPC: Total IPC of All Threads
system.cpu0.int_regfile_reads               119850591                       # number of integer regfile reads
system.cpu0.int_regfile_writes               64680117                       # number of integer regfile writes
system.cpu0.fp_regfile_reads                        3                       # number of floating regfile reads
system.cpu0.fp_regfile_writes                       6                       # number of floating regfile writes
system.cpu0.cc_regfile_reads                 42599421                       # number of cc regfile reads
system.cpu0.cc_regfile_writes                27662030                       # number of cc regfile writes
system.cpu0.misc_regfile_reads               28770168                       # number of misc regfile reads
system.cpu0.dcache.tags.pwrStateResidencyTicks::UNDEFINED  15267344125                       # Cumulative time (in ticks) in various power states
system.cpu0.dcache.tags.replacements           101832                       # number of replacements
system.cpu0.dcache.tags.tagsinuse                1024                       # Cycle average of tags in use
system.cpu0.dcache.tags.total_refs            3599038                       # Total number of references to valid blocks.
system.cpu0.dcache.tags.sampled_refs           101832                       # Sample count of references to valid blocks.
system.cpu0.dcache.tags.avg_refs            35.342898                       # Average number of references to valid blocks.
system.cpu0.dcache.tags.warmup_cycle                0                       # Cycle when the warmup percentage was hit.
system.cpu0.dcache.tags.occ_blocks::cpu0.data         1024                       # Average occupied blocks per requestor
system.cpu0.dcache.tags.occ_percent::cpu0.data            1                       # Average percentage of cache occupancy
system.cpu0.dcache.tags.occ_percent::total            1                       # Average percentage of cache occupancy
system.cpu0.dcache.tags.occ_task_id_blocks::1024         1024                       # Occupied blocks per task id
system.cpu0.dcache.tags.age_task_id_blocks_1024::0           34                       # Occupied blocks per task id
system.cpu0.dcache.tags.age_task_id_blocks_1024::1          316                       # Occupied blocks per task id
system.cpu0.dcache.tags.age_task_id_blocks_1024::2          653                       # Occupied blocks per task id
system.cpu0.dcache.tags.age_task_id_blocks_1024::3            1                       # Occupied blocks per task id
system.cpu0.dcache.tags.age_task_id_blocks_1024::4           20                       # Occupied blocks per task id
system.cpu0.dcache.tags.occ_task_id_percent::1024            1                       # Percentage of cache occupancy per task id
system.cpu0.dcache.tags.tag_accesses         53620536                       # Number of tag accesses
system.cpu0.dcache.tags.data_accesses        53620536                       # Number of data accesses
system.cpu0.dcache.pwrStateResidencyTicks::UNDEFINED  15267344125                       # Cumulative time (in ticks) in various power states
system.cpu0.dcache.ReadReq_hits::cpu0.data      8176130                       # number of ReadReq hits
system.cpu0.dcache.ReadReq_hits::total        8176130                       # number of ReadReq hits
system.cpu0.dcache.WriteReq_hits::cpu0.data      4872485                       # number of WriteReq hits
system.cpu0.dcache.WriteReq_hits::total       4872485                       # number of WriteReq hits
system.cpu0.dcache.demand_hits::cpu0.data     13048615                       # number of demand (read+write) hits
system.cpu0.dcache.demand_hits::total        13048615                       # number of demand (read+write) hits
system.cpu0.dcache.overall_hits::cpu0.data     13048615                       # number of overall hits
system.cpu0.dcache.overall_hits::total       13048615                       # number of overall hits
system.cpu0.dcache.ReadReq_misses::cpu0.data       310198                       # number of ReadReq misses
system.cpu0.dcache.ReadReq_misses::total       310198                       # number of ReadReq misses
system.cpu0.dcache.WriteReq_misses::cpu0.data        20863                       # number of WriteReq misses
system.cpu0.dcache.WriteReq_misses::total        20863                       # number of WriteReq misses
system.cpu0.dcache.demand_misses::cpu0.data       331061                       # number of demand (read+write) misses
system.cpu0.dcache.demand_misses::total        331061                       # number of demand (read+write) misses
system.cpu0.dcache.overall_misses::cpu0.data       331061                       # number of overall misses
system.cpu0.dcache.overall_misses::total       331061                       # number of overall misses
system.cpu0.dcache.ReadReq_miss_latency::cpu0.data  25212876500                       # number of ReadReq miss cycles
system.cpu0.dcache.ReadReq_miss_latency::total  25212876500                       # number of ReadReq miss cycles
system.cpu0.dcache.WriteReq_miss_latency::cpu0.data   1789544000                       # number of WriteReq miss cycles
system.cpu0.dcache.WriteReq_miss_latency::total   1789544000                       # number of WriteReq miss cycles
system.cpu0.dcache.demand_miss_latency::cpu0.data  27002420500                       # number of demand (read+write) miss cycles
system.cpu0.dcache.demand_miss_latency::total  27002420500                       # number of demand (read+write) miss cycles
system.cpu0.dcache.overall_miss_latency::cpu0.data  27002420500                       # number of overall miss cycles
system.cpu0.dcache.overall_miss_latency::total  27002420500                       # number of overall miss cycles
system.cpu0.dcache.ReadReq_accesses::cpu0.data      8486328                       # number of ReadReq accesses(hits+misses)
system.cpu0.dcache.ReadReq_accesses::total      8486328                       # number of ReadReq accesses(hits+misses)
system.cpu0.dcache.WriteReq_accesses::cpu0.data      4893348                       # number of WriteReq accesses(hits+misses)
system.cpu0.dcache.WriteReq_accesses::total      4893348                       # number of WriteReq accesses(hits+misses)
system.cpu0.dcache.demand_accesses::cpu0.data     13379676                       # number of demand (read+write) accesses
system.cpu0.dcache.demand_accesses::total     13379676                       # number of demand (read+write) accesses
system.cpu0.dcache.overall_accesses::cpu0.data     13379676                       # number of overall (read+write) accesses
system.cpu0.dcache.overall_accesses::total     13379676                       # number of overall (read+write) accesses
system.cpu0.dcache.ReadReq_miss_rate::cpu0.data     0.036553                       # miss rate for ReadReq accesses
system.cpu0.dcache.ReadReq_miss_rate::total     0.036553                       # miss rate for ReadReq accesses
[...]
system.l2.ReadExReq_miss_rate::cpu0.data     0.981077                       # miss rate for ReadExReq accesses
system.l2.ReadExReq_miss_rate::total         0.981077                       # miss rate for ReadExReq accesses
system.l2.ReadCleanReq_miss_rate::cpu0.inst            1                       # miss rate for ReadCleanReq accesses
system.l2.ReadCleanReq_miss_rate::total             1                       # miss rate for ReadCleanReq accesses
system.l2.ReadSharedReq_miss_rate::cpu0.data     0.878918                       # miss rate for ReadSharedReq accesses
system.l2.ReadSharedReq_miss_rate::total     0.878918                       # miss rate for ReadSharedReq accesses
system.l2.demand_miss_rate::cpu0.inst               1                       # miss rate for demand accesses
system.l2.demand_miss_rate::cpu0.data        0.899647                       # miss rate for demand accesses
system.l2.demand_miss_rate::total            0.899670                       # miss rate for demand accesses
system.l2.overall_miss_rate::cpu0.inst              1                       # miss rate for overall accesses
system.l2.overall_miss_rate::cpu0.data       0.899647                       # miss rate for overall accesses
system.l2.overall_miss_rate::total           0.899670                       # miss rate for overall accesses
system.l2.ReadExReq_avg_miss_latency::cpu0.data 84782.779203                       # average ReadExReq miss latency
system.l2.ReadExReq_avg_miss_latency::total 84782.779203                       # average ReadExReq miss latency
system.l2.ReadCleanReq_avg_miss_latency::cpu0.inst 117652.173913                       # average ReadCleanReq miss latency
system.l2.ReadCleanReq_avg_miss_latency::total 117652.173913                       # average ReadCleanReq miss latency
system.l2.ReadSharedReq_avg_miss_latency::cpu0.data 91082.569386                       # average ReadSharedReq miss latency
system.l2.ReadSharedReq_avg_miss_latency::total 91082.569386                       # average ReadSharedReq miss latency
system.l2.demand_avg_miss_latency::cpu0.inst 117652.173913                       # average overall miss latency
system.l2.demand_avg_miss_latency::cpu0.data 89688.545169                       # average overall miss latency
system.l2.demand_avg_miss_latency::total 89695.563922                       # average overall miss latency
system.l2.overall_avg_miss_latency::cpu0.inst 117652.173913                       # average overall miss latency
system.l2.overall_avg_miss_latency::cpu0.data 89688.545169                       # average overall miss latency
system.l2.overall_avg_miss_latency::total 89695.563922                       # average overall miss latency
system.l2.blocked_cycles::no_mshrs                  0                       # number of cycles access was blocked
system.l2.blocked_cycles::no_targets                0                       # number of cycles access was blocked
system.l2.blocked::no_mshrs                         0                       # number of cycles access was blocked
system.l2.blocked::no_targets                       0                       # number of cycles access was blocked
system.l2.avg_blocked_cycles::no_mshrs            nan                       # average number of cycles each access was blocked
system.l2.avg_blocked_cycles::no_targets          nan                       # average number of cycles each access was blocked
system.l2.writebacks::writebacks                22890                       # number of writebacks
system.l2.writebacks::total                     22890                       # number of writebacks
system.l2.ReadExReq_mshr_misses::cpu0.data        20272                       # number of ReadExReq MSHR misses
system.l2.ReadExReq_mshr_misses::total          20272                       # number of ReadExReq MSHR misses
system.l2.ReadCleanReq_mshr_misses::cpu0.inst           23                       # number of ReadCleanReq MSHR misses
system.l2.ReadCleanReq_mshr_misses::total           23                       # number of ReadCleanReq MSHR misses
system.l2.ReadSharedReq_mshr_misses::cpu0.data        71340                       # number of ReadSharedReq MSHR misses
system.l2.ReadSharedReq_mshr_misses::total        71340                       # number of ReadSharedReq MSHR misses
system.l2.demand_mshr_misses::cpu0.inst            23                       # number of demand (read+write) MSHR misses
system.l2.demand_mshr_misses::cpu0.data         91612                       # number of demand (read+write) MSHR misses
system.l2.demand_mshr_misses::total             91635                       # number of demand (read+write) MSHR misses
system.l2.overall_mshr_misses::cpu0.inst           23                       # number of overall MSHR misses
system.l2.overall_mshr_misses::cpu0.data        91612                       # number of overall MSHR misses
system.l2.overall_mshr_misses::total            91635                       # number of overall MSHR misses
system.l2.ReadExReq_mshr_miss_latency::cpu0.data   1515996500                       # number of ReadExReq MSHR miss cycles
system.l2.ReadExReq_mshr_miss_latency::total   1515996500                       # number of ReadExReq MSHR miss cycles
system.l2.ReadCleanReq_mshr_miss_latency::cpu0.inst      2476000                       # number of ReadCleanReq MSHR miss cycles
system.l2.ReadCleanReq_mshr_miss_latency::total      2476000                       # number of ReadCleanReq MSHR miss cycles
system.l2.ReadSharedReq_mshr_miss_latency::cpu0.data   5784420500                       # number of ReadSharedReq MSHR miss cycles
system.l2.ReadSharedReq_mshr_miss_latency::total   5784420500                       # number of ReadSharedReq MSHR miss cycles
system.l2.demand_mshr_miss_latency::cpu0.inst      2476000                       # number of demand (read+write) MSHR miss cycles
system.l2.demand_mshr_miss_latency::cpu0.data   7300417000                       # number of demand (read+write) MSHR miss cycles
system.l2.demand_mshr_miss_latency::total   7302893000                       # number of demand (read+write) MSHR miss cycles
system.l2.overall_mshr_miss_latency::cpu0.inst      2476000                       # number of overall MSHR miss cycles
system.l2.overall_mshr_miss_latency::cpu0.data   7300417000                       # number of overall MSHR miss cycles
system.l2.overall_mshr_miss_latency::total   7302893000                       # number of overall MSHR miss cycles
system.l2.ReadExReq_mshr_miss_rate::cpu0.data     0.981077                       # mshr miss rate for ReadExReq accesses
system.l2.ReadExReq_mshr_miss_rate::total     0.981077                       # mshr miss rate for ReadExReq accesses
system.l2.ReadCleanReq_mshr_miss_rate::cpu0.inst            1                       # mshr miss rate for ReadCleanReq accesses
system.l2.ReadCleanReq_mshr_miss_rate::total            1                       # mshr miss rate for ReadCleanReq accesses
system.l2.ReadSharedReq_mshr_miss_rate::cpu0.data     0.878918                       # mshr miss rate for ReadSharedReq accesses
system.l2.ReadSharedReq_mshr_miss_rate::total     0.878918                       # mshr miss rate for ReadSharedReq accesses
system.l2.demand_mshr_miss_rate::cpu0.inst            1                       # mshr miss rate for demand accesses
system.l2.demand_mshr_miss_rate::cpu0.data     0.899647                       # mshr miss rate for demand accesses
system.l2.demand_mshr_miss_rate::total       0.899670                       # mshr miss rate for demand accesses
system.l2.overall_mshr_miss_rate::cpu0.inst            1                       # mshr miss rate for overall accesses
system.l2.overall_mshr_miss_rate::cpu0.data     0.899647                       # mshr miss rate for overall accesses
system.l2.overall_mshr_miss_rate::total      0.899670                       # mshr miss rate for overall accesses
system.l2.ReadExReq_avg_mshr_miss_latency::cpu0.data 74782.779203                       # average ReadExReq mshr miss latency
system.l2.ReadExReq_avg_mshr_miss_latency::total 74782.779203                       # average ReadExReq mshr miss latency
system.l2.ReadCleanReq_avg_mshr_miss_latency::cpu0.inst 107652.173913                       # average ReadCleanReq mshr miss latency
system.l2.ReadCleanReq_avg_mshr_miss_latency::total 107652.173913                       # average ReadCleanReq mshr miss latency
system.l2.ReadSharedReq_avg_mshr_miss_latency::cpu0.data 81082.429212                       # average ReadSharedReq mshr miss latency
system.l2.ReadSharedReq_avg_mshr_miss_latency::total 81082.429212                       # average ReadSharedReq mshr miss latency
system.l2.demand_avg_mshr_miss_latency::cpu0.inst 107652.173913                       # average overall mshr miss latency
system.l2.demand_avg_mshr_miss_latency::cpu0.data 79688.436013                       # average overall mshr miss latency
system.l2.demand_avg_mshr_miss_latency::total 79695.454793                       # average overall mshr miss latency
system.l2.overall_avg_mshr_miss_latency::cpu0.inst 107652.173913                       # average overall mshr miss latency
system.l2.overall_avg_mshr_miss_latency::cpu0.data 79688.436013                       # average overall mshr miss latency
system.l2.overall_avg_mshr_miss_latency::total 79695.454793                       # average overall mshr miss latency
system.membus.snoop_filter.tot_requests        183232                       # Total number of requests made to the snoop filter.
system.membus.snoop_filter.hit_single_requests        91597                       # Number of requests hitting in the snoop filter with a single holder of the requested data.
system.membus.snoop_filter.hit_multi_requests            0                       # Number of requests hitting in the snoop filter with multiple (>1) holders of the requested data.
system.membus.snoop_filter.tot_snoops               0                       # Total number of snoops made to the snoop filter.
system.membus.snoop_filter.hit_single_snoops            0                       # Number of snoops hitting in the snoop filter with a single holder of the requested data.
system.membus.snoop_filter.hit_multi_snoops            0                       # Number of snoops hitting in the snoop filter with multiple (>1) holders of the requested data.
system.membus.pwrStateResidencyTicks::UNDEFINED  15267344125                       # Cumulative time (in ticks) in various power states
system.membus.trans_dist::ReadResp              71364                       # Transaction distribution
system.membus.trans_dist::WritebackDirty        22890                       # Transaction distribution
system.membus.trans_dist::CleanEvict            68707                       # Transaction distribution
system.membus.trans_dist::ReadExReq             20272                       # Transaction distribution
system.membus.trans_dist::ReadExResp            20272                       # Transaction distribution
system.membus.trans_dist::ReadSharedReq         71363                       # Transaction distribution
system.membus.pkt_count_system.l2.mem_side::system.mem_ctrls.port       274868                       # Packet count per connected master and slave (bytes)
system.membus.pkt_count_system.l2.mem_side::total       274868                       # Packet count per connected master and slave (bytes)
system.membus.pkt_count::total                 274868                       # Packet count per connected master and slave (bytes)
system.membus.pkt_size_system.l2.mem_side::system.mem_ctrls.port      7329664                       # Cumulative packet size per connected master and slave (bytes)
system.membus.pkt_size_system.l2.mem_side::total      7329664                       # Cumulative packet size per connected master and slave (bytes)
system.membus.pkt_size::total                 7329664                       # Cumulative packet size per connected master and slave (bytes)
system.membus.snoops                                0                       # Total snoops (count)
system.membus.snoopTraffic                          0                       # Total snoop traffic (bytes)
system.membus.snoop_fanout::samples             91635                       # Request fanout histogram
system.membus.snoop_fanout::mean                    0                       # Request fanout histogram
system.membus.snoop_fanout::stdev                   0                       # Request fanout histogram
system.membus.snoop_fanout::underflows              0      0.00%      0.00% # Request fanout histogram
system.membus.snoop_fanout::0                   91635    100.00%    100.00% # Request fanout histogram
system.membus.snoop_fanout::1                       0      0.00%    100.00% # Request fanout histogram
system.membus.snoop_fanout::overflows               0      0.00%    100.00% # Request fanout histogram
system.membus.snoop_fanout::min_value               0                       # Request fanout histogram
system.membus.snoop_fanout::max_value               0                       # Request fanout histogram
system.membus.snoop_fanout::total               91635                       # Request fanout histogram
system.membus.reqLayer8.occupancy           293224500                       # Layer occupancy (ticks)
system.membus.reqLayer8.utilization               1.9                       # Layer utilization (%)
system.membus.respLayer1.occupancy          488936500                       # Layer occupancy (ticks)
system.membus.respLayer1.utilization              3.2                       # Layer utilization (%)
system.tol2bus.snoop_filter.tot_requests       203708                       # Total number of requests made to the snoop filter.
system.tol2bus.snoop_filter.hit_single_requests       101854                       # Number of requests hitting in the snoop filter with a single holder of the requested data.
system.tol2bus.snoop_filter.hit_multi_requests            0                       # Number of requests hitting in the snoop filter with multiple (>1) holders of the requested data.
system.tol2bus.snoop_filter.tot_snoops             64                       # Total number of snoops made to the snoop filter.
system.tol2bus.snoop_filter.hit_single_snoops           64                       # Number of snoops hitting in the snoop filter with a single holder of the requested data.
system.tol2bus.snoop_filter.hit_multi_snoops            0                       # Number of snoops hitting in the snoop filter with multiple (>1) holders of the requested data.
system.tol2bus.pwrStateResidencyTicks::UNDEFINED  15267344125                       # Cumulative time (in ticks) in various power states
system.tol2bus.trans_dist::ReadResp             81192                       # Transaction distribution
system.tol2bus.trans_dist::WritebackDirty        60860                       # Transaction distribution
system.tol2bus.trans_dist::WritebackClean           23                       # Transaction distribution
system.tol2bus.trans_dist::CleanEvict          132630                       # Transaction distribution
system.tol2bus.trans_dist::ReadExReq            20663                       # Transaction distribution
system.tol2bus.trans_dist::ReadExResp           20663                       # Transaction distribution
system.tol2bus.trans_dist::ReadCleanReq            23                       # Transaction distribution
system.tol2bus.trans_dist::ReadSharedReq        81168                       # Transaction distribution
system.tol2bus.pkt_count_system.cpu0.icache.mem_side::system.l2.cpu_side           69                       # Packet count per connected master and slave (bytes)
system.tol2bus.pkt_count_system.cpu0.dcache.mem_side::system.l2.cpu_side       305494                       # Packet count per connected master and slave (bytes)
system.tol2bus.pkt_count::total                305563                       # Packet count per connected master and slave (bytes)
system.tol2bus.pkt_size_system.cpu0.icache.mem_side::system.l2.cpu_side         2944                       # Cumulative packet size per connected master and slave (bytes)
system.tol2bus.pkt_size_system.cpu0.dcache.mem_side::system.l2.cpu_side      8947328                       # Cumulative packet size per connected master and slave (bytes)
system.tol2bus.pkt_size::total                8950272                       # Cumulative packet size per connected master and slave (bytes)
system.tol2bus.snoops                           91659                       # Total snoops (count)
system.tol2bus.snoopTraffic                   1464960                       # Total snoop traffic (bytes)
system.tol2bus.snoop_fanout::samples           193513                       # Request fanout histogram
system.tol2bus.snoop_fanout::mean            0.000331                       # Request fanout histogram
system.tol2bus.snoop_fanout::stdev           0.018183                       # Request fanout histogram
system.tol2bus.snoop_fanout::underflows             0      0.00%      0.00% # Request fanout histogram
system.tol2bus.snoop_fanout::0                 193449     99.97%     99.97% # Request fanout histogram
system.tol2bus.snoop_fanout::1                     64      0.03%    100.00% # Request fanout histogram
system.tol2bus.snoop_fanout::2                      0      0.00%    100.00% # Request fanout histogram
system.tol2bus.snoop_fanout::3                      0      0.00%    100.00% # Request fanout histogram
system.tol2bus.snoop_fanout::4                      0      0.00%    100.00% # Request fanout histogram
system.tol2bus.snoop_fanout::5                      0      0.00%    100.00% # Request fanout histogram
system.tol2bus.snoop_fanout::6                      0      0.00%    100.00% # Request fanout histogram
system.tol2bus.snoop_fanout::7                      0      0.00%    100.00% # Request fanout histogram
system.tol2bus.snoop_fanout::8                      0      0.00%    100.00% # Request fanout histogram
system.tol2bus.snoop_fanout::9                      0      0.00%    100.00% # Request fanout histogram
system.tol2bus.snoop_fanout::10                     0      0.00%    100.00% # Request fanout histogram
system.tol2bus.snoop_fanout::11                     0      0.00%    100.00% # Request fanout histogram
system.tol2bus.snoop_fanout::12                     0      0.00%    100.00% # Request fanout histogram
system.tol2bus.snoop_fanout::13                     0      0.00%    100.00% # Request fanout histogram
system.tol2bus.snoop_fanout::14                     0      0.00%    100.00% # Request fanout histogram
system.tol2bus.snoop_fanout::15                     0      0.00%    100.00% # Request fanout histogram
system.tol2bus.snoop_fanout::16                     0      0.00%    100.00% # Request fanout histogram
system.tol2bus.snoop_fanout::overflows              0      0.00%    100.00% # Request fanout histogram
system.tol2bus.snoop_fanout::min_value              0                       # Request fanout histogram
system.tol2bus.snoop_fanout::max_value              1                       # Request fanout histogram
system.tol2bus.snoop_fanout::total             193513                       # Request fanout histogram
system.tol2bus.reqLayer0.occupancy          139847000                       # Layer occupancy (ticks)
system.tol2bus.reqLayer0.utilization              0.9                       # Layer utilization (%)
system.tol2bus.respLayer0.occupancy             34500                       # Layer occupancy (ticks)
system.tol2bus.respLayer0.utilization             0.0                       # Layer utilization (%)
system.tol2bus.respLayer1.occupancy         152748000                       # Layer occupancy (ticks)
system.tol2bus.respLayer1.utilization             1.0                       # Layer utilization (%)

---------- End Simulation Statistics   ----------
