
---------- Begin Simulation Statistics ----------
sim_seconds                                  0.015267                       # Number of seconds simulated
sim_ticks                                 15267344125                       # Number of ticks simulated
final_tick                               167940785375                       # Number of ticks from beginning of simulation (restored from checkpoints and never reset)
sim_freq                                 1000000000000                       # Frequency of simulated ticks
host_inst_rate                                1202512                       # Simulator instruction rate (inst/s)
host_op_rate                                  2261866                       # Simulator op (including micro ops) rate (op/s)
host_tick_rate                               47462642                       # Simulator tick rate (ticks/s)
host_mem_usage                                2302208                       # Number of bytes of host memory used
host_seconds                                   321.67                       # Real time elapsed on the host
sim_insts                                   386812781                       # Number of instructions simulated
sim_ops                                     727576268                       # Number of ops (including micro ops) simulated
system.voltage_domain.voltage                       1                       # Voltage in Volts
system.clk_domain.clock                          1000                       # Clock period in ticks
system.mem_ctrls.pwrStateResidencyTicks::UNDEFINED  15267344125                       # Cumulative time (in ticks) in various power states
system.mem_ctrls.bytes_read::cpu0.inst             64                       # Number of bytes read from this memory
system.mem_ctrls.bytes_read::cpu0.data         248448                       # Number of bytes read from this memory
system.mem_ctrls.bytes_read::total             248512                       # Number of bytes read from this memory
system.mem_ctrls.bytes_inst_read::cpu0.inst           64                       # Number of instructions bytes read from this memory
system.mem_ctrls.bytes_inst_read::total            64                       # Number of instructions bytes read from this memory
system.mem_ctrls.bytes_written::writebacks       229376                       # Number of bytes written to this memory
system.mem_ctrls.bytes_written::total          229376                       # Number of bytes written to this memory
system.mem_ctrls.num_reads::cpu0.inst               1                       # Number of read requests responded to by this memory
system.mem_ctrls.num_reads::cpu0.data            3882                       # Number of read requests responded to by this memory
system.mem_ctrls.num_reads::total                3883                       # Number of read requests responded to by this memory
system.mem_ctrls.num_writes::writebacks          3584                       # Number of write requests responded to by this memory
system.mem_ctrls.num_writes::total               3584                       # Number of write requests responded to by this memory
system.mem_ctrls.bw_read::cpu0.inst              4192                       # Total read bandwidth from this memory (bytes/s)
system.mem_ctrls.bw_read::cpu0.data          16273164                       # Total read bandwidth from this memory (bytes/s)
system.mem_ctrls.bw_read::total              16277356                       # Total read bandwidth from this memory (bytes/s)
system.mem_ctrls.bw_inst_read::cpu0.inst         4192                       # Instruction read bandwidth from this memory (bytes/s)
system.mem_ctrls.bw_inst_read::total             4192                       # Instruction read bandwidth from this memory (bytes/s)
system.mem_ctrls.bw_write::writebacks        15023962                       # Write bandwidth from this memory (bytes/s)
system.mem_ctrls.bw_write::total             15023962                       # Write bandwidth from this memory (bytes/s)
system.mem_ctrls.bw_total::writebacks        15023962                       # Total bandwidth to/from this memory (bytes/s)
system.mem_ctrls.bw_total::cpu0.inst             4192                       # Total bandwidth to/from this memory (bytes/s)
system.mem_ctrls.bw_total::cpu0.data         16273164                       # Total bandwidth to/from this memory (bytes/s)
system.mem_ctrls.bw_total::total             31301318                       # Total bandwidth to/from this memory (bytes/s)
system.mem_ctrls.readReqs                        3883                       # Number of read requests accepted
system.mem_ctrls.writeReqs                       3584                       # Number of write requests accepted
system.mem_ctrls.readBursts                      3883                       # Number of DRAM read bursts, including those serviced by the write queue
system.mem_ctrls.writeBursts                     3584                       # Number of DRAM write bursts, including those merged in the write queue
system.mem_ctrls.bytesReadDRAM                 248512                       # Total number of bytes read from DRAM
system.mem_ctrls.bytesReadWrQ                       0                       # Total number of bytes read from write queue
system.mem_ctrls.bytesWritten                  228736                       # Total number of bytes written to DRAM
system.mem_ctrls.bytesReadSys                  248512                       # Total read bytes from the system interface side
system.mem_ctrls.bytesWrittenSys               229376                       # Total written bytes from the system interface side
system.mem_ctrls.servicedByWrQ                      0                       # Number of DRAM read bursts serviced by the write queue
system.mem_ctrls.mergedWrBursts                     0                       # Number of DRAM write bursts merged with an existing one
system.mem_ctrls.neitherReadNorWriteReqs            0                       # Number of requests that are neither read nor write
system.mem_ctrls.perBankRdBursts::0               128                       # Per bank write bursts
system.mem_ctrls.perBankRdBursts::1               151                       # Per bank write bursts
system.mem_ctrls.perBankRdBursts::2               422                       # Per bank write bursts
system.mem_ctrls.perBankRdBursts::3               384                       # Per bank write bursts
system.mem_ctrls.perBankRdBursts::4               384                       # Per bank write bursts
system.mem_ctrls.perBankRdBursts::5               460                       # Per bank write bursts
system.mem_ctrls.perBankRdBursts::6               384                       # Per bank write bursts
system.mem_ctrls.perBankRdBursts::7               355                       # Per bank write bursts
system.mem_ctrls.perBankRdBursts::8               256                       # Per bank write bursts
system.mem_ctrls.perBankRdBursts::9               256                       # Per bank write bursts
system.mem_ctrls.perBankRdBursts::10              221                       # Per bank write bursts
system.mem_ctrls.perBankRdBursts::11               14                       # Per bank write bursts
system.mem_ctrls.perBankRdBursts::12               82                       # Per bank write bursts
system.mem_ctrls.perBankRdBursts::13              129                       # Per bank write bursts
system.mem_ctrls.perBankRdBursts::14              129                       # Per bank write bursts
system.mem_ctrls.perBankRdBursts::15              128                       # Per bank write bursts
system.mem_ctrls.perBankWrBursts::0               128                       # Per bank write bursts
system.mem_ctrls.perBankWrBursts::1               155                       # Per bank write bursts
system.mem_ctrls.perBankWrBursts::2               421                       # Per bank write bursts
system.mem_ctrls.perBankWrBursts::3               384                       # Per bank write bursts
system.mem_ctrls.perBankWrBursts::4               382                       # Per bank write bursts
system.mem_ctrls.perBankWrBursts::5               398                       # Per bank write bursts
system.mem_ctrls.perBankWrBursts::6               293                       # Per bank write bursts
system.mem_ctrls.perBankWrBursts::7               312                       # Per bank write bursts
system.mem_ctrls.perBankWrBursts::8               230                       # Per bank write bursts
system.mem_ctrls.perBankWrBursts::9               227                       # Per bank write bursts
system.mem_ctrls.perBankWrBursts::10              165                       # Per bank write bursts
system.mem_ctrls.perBankWrBursts::11                0                       # Per bank write bursts
system.mem_ctrls.perBankWrBursts::12               94                       # Per bank write bursts
system.mem_ctrls.perBankWrBursts::13              129                       # Per bank write bursts
system.mem_ctrls.perBankWrBursts::14              128                       # Per bank write bursts
system.mem_ctrls.perBankWrBursts::15              128                       # Per bank write bursts
system.mem_ctrls.numRdRetry                         0                       # Number of times read queue was full causing retry
system.mem_ctrls.numWrRetry                         0                       # Number of times write queue was full causing retry
system.mem_ctrls.totGap                   15270238500                       # Total gap between requests
system.mem_ctrls.readPktSize::0                     0                       # Read request sizes (log2)
system.mem_ctrls.readPktSize::1                     0                       # Read request sizes (log2)
system.mem_ctrls.readPktSize::2                     0                       # Read request sizes (log2)
system.mem_ctrls.readPktSize::3                     0                       # Read request sizes (log2)
system.mem_ctrls.readPktSize::4                     0                       # Read request sizes (log2)
system.mem_ctrls.readPktSize::5                     0                       # Read request sizes (log2)
system.mem_ctrls.readPktSize::6                  3883                       # Read request sizes (log2)
system.mem_ctrls.writePktSize::0                    0                       # Write request sizes (log2)
system.mem_ctrls.writePktSize::1                    0                       # Write request sizes (log2)
system.mem_ctrls.writePktSize::2                    0                       # Write request sizes (log2)
system.mem_ctrls.writePktSize::3                    0                       # Write request sizes (log2)
system.mem_ctrls.writePktSize::4                    0                       # Write request sizes (log2)
system.mem_ctrls.writePktSize::5                    0                       # Write request sizes (log2)
system.mem_ctrls.writePktSize::6                 3584                       # Write request sizes (log2)
system.mem_ctrls.rdQLenPdf::0                    3878                       # What read queue length does an incoming req see
system.mem_ctrls.rdQLenPdf::1                       5                       # What read queue length does an incoming req see
system.mem_ctrls.rdQLenPdf::2                       0                       # What read queue length does an incoming req see
system.mem_ctrls.rdQLenPdf::3                       0                       # What read queue length does an incoming req see
system.mem_ctrls.rdQLenPdf::4                       0                       # What read queue length does an incoming req see
system.mem_ctrls.rdQLenPdf::5                       0                       # What read queue length does an incoming req see
system.mem_ctrls.rdQLenPdf::6                       0                       # What read queue length does an incoming req see
system.mem_ctrls.rdQLenPdf::7                       0                       # What read queue length does an incoming req see
system.mem_ctrls.rdQLenPdf::8                       0                       # What read queue length does an incoming req see
system.mem_ctrls.rdQLenPdf::9                       0                       # What read queue length does an incoming req see
system.mem_ctrls.rdQLenPdf::10                      0                       # What read queue length does an incoming req see
system.mem_ctrls.rdQLenPdf::11                      0                       # What read queue length does an incoming req see
system.mem_ctrls.rdQLenPdf::12                      0                       # What read queue length does an incoming req see
system.mem_ctrls.rdQLenPdf::13                      0                       # What read queue length does an incoming req see
system.mem_ctrls.rdQLenPdf::14                      0                       # What read queue length does an incoming req see
system.mem_ctrls.rdQLenPdf::15                      0                       # What read queue length does an incoming req see
system.mem_ctrls.rdQLenPdf::16                      0                       # What read queue length does an incoming req see
system.mem_ctrls.rdQLenPdf::17                      0                       # What read queue length does an incoming req see
system.mem_ctrls.rdQLenPdf::18                      0                       # What read queue length does an incoming req see
system.mem_ctrls.rdQLenPdf::19                      0                       # What read queue length does an incoming req see
system.mem_ctrls.rdQLenPdf::20                      0                       # What read queue length does an incoming req see
system.mem_ctrls.rdQLenPdf::21                      0                       # What read queue length does an incoming req see
system.mem_ctrls.rdQLenPdf::22                      0                       # What read queue length does an incoming req see
system.mem_ctrls.rdQLenPdf::23                      0                       # What read queue length does an incoming req see
system.mem_ctrls.rdQLenPdf::24                      0                       # What read queue length does an incoming req see
system.mem_ctrls.rdQLenPdf::25                      0                       # What read queue length does an incoming req see
system.mem_ctrls.rdQLenPdf::26                      0                       # What read queue length does an incoming req see
system.mem_ctrls.rdQLenPdf::27                      0                       # What read queue length does an incoming req see
system.mem_ctrls.rdQLenPdf::28                      0                       # What read queue length does an incoming req see
system.mem_ctrls.rdQLenPdf::29                      0                       # What read queue length does an incoming req see
system.mem_ctrls.rdQLenPdf::30                      0                       # What read queue length does an incoming req see
system.mem_ctrls.rdQLenPdf::31                      0                       # What read queue length does an incoming req see
system.mem_ctrls.wrQLenPdf::0                       0                       # What write queue length does an incoming req see
system.mem_ctrls.wrQLenPdf::1                       0                       # What write queue length does an incoming req see
system.mem_ctrls.wrQLenPdf::2                       0                       # What write queue length does an incoming req see
system.mem_ctrls.wrQLenPdf::3                       0                       # What write queue length does an incoming req see
system.mem_ctrls.wrQLenPdf::4                       0                       # What write queue length does an incoming req see
system.mem_ctrls.wrQLenPdf::5                       0                       # What write queue length does an incoming req see
system.mem_ctrls.wrQLenPdf::6                       0                       # What write queue length does an incoming req see
system.mem_ctrls.wrQLenPdf::7                       0                       # What write queue length does an incoming req see
system.mem_ctrls.wrQLenPdf::8                       0                       # What write queue length does an incoming req see
system.mem_ctrls.wrQLenPdf::9                       0                       # What write queue length does an incoming req see
system.mem_ctrls.wrQLenPdf::10                      0                       # What write queue length does an incoming req see
system.mem_ctrls.wrQLenPdf::11                      0                       # What write queue length does an incoming req see
system.mem_ctrls.wrQLenPdf::12                      0                       # What write queue length does an incoming req see
system.mem_ctrls.wrQLenPdf::13                      0                       # What write queue length does an incoming req see
system.mem_ctrls.wrQLenPdf::14                      0                       # What write queue length does an incoming req see
system.mem_ctrls.wrQLenPdf::15                    178                       # What write queue length does an incoming req see
system.mem_ctrls.wrQLenPdf::16                    180                       # What write queue length does an incoming req see
system.mem_ctrls.wrQLenPdf::17                    201                       # What write queue length does an incoming req see
system.mem_ctrls.wrQLenPdf::18                    201                       # What write queue length does an incoming req see
system.mem_ctrls.wrQLenPdf::19                    201                       # What write queue length does an incoming req see
system.mem_ctrls.wrQLenPdf::20                    202                       # What write queue length does an incoming req see
system.mem_ctrls.wrQLenPdf::21                    202                       # What write queue length does an incoming req see
system.mem_ctrls.wrQLenPdf::22                    202                       # What write queue length does an incoming req see
system.mem_ctrls.wrQLenPdf::23                    202                       # What write queue length does an incoming req see
system.mem_ctrls.wrQLenPdf::24                    202                       # What write queue length does an incoming req see
system.mem_ctrls.wrQLenPdf::25                    202                       # What write queue length does an incoming req see
system.mem_ctrls.wrQLenPdf::26                    202                       # What write queue length does an incoming req see
system.mem_ctrls.wrQLenPdf::27                    202                       # What write queue length does an incoming req see
system.mem_ctrls.wrQLenPdf::28                    202                       # What write queue length does an incoming req see
system.mem_ctrls.wrQLenPdf::29                    202                       # What write queue length does an incoming req see
system.mem_ctrls.wrQLenPdf::30                    201                       # What write queue length does an incoming req see
system.mem_ctrls.wrQLenPdf::31                    201                       # What write queue length does an incoming req see
system.mem_ctrls.wrQLenPdf::32                    201                       # What write queue length does an incoming req see
system.mem_ctrls.wrQLenPdf::33                      0                       # What write queue length does an incoming req see
system.mem_ctrls.wrQLenPdf::34                      0                       # What write queue length does an incoming req see
system.mem_ctrls.wrQLenPdf::35                      0                       # What write queue length does an incoming req see
system.mem_ctrls.wrQLenPdf::36                      0                       # What write queue length does an incoming req see
system.mem_ctrls.wrQLenPdf::37                      0                       # What write queue length does an incoming req see
system.mem_ctrls.wrQLenPdf::38                      0                       # What write queue length does an incoming req see
system.mem_ctrls.wrQLenPdf::39                      0                       # What write queue length does an incoming req see
system.mem_ctrls.wrQLenPdf::40                      0                       # What write queue length does an incoming req see
system.mem_ctrls.wrQLenPdf::41                      0                       # What write queue length does an incoming req see
system.mem_ctrls.wrQLenPdf::42                      0                       # What write queue length does an incoming req see
system.mem_ctrls.wrQLenPdf::43                      0                       # What write queue length does an incoming req see
system.mem_ctrls.wrQLenPdf::44                      0                       # What write queue length does an incoming req see
system.mem_ctrls.wrQLenPdf::45                      0                       # What write queue length does an incoming req see
system.mem_ctrls.wrQLenPdf::46                      0                       # What write queue length does an incoming req see
system.mem_ctrls.wrQLenPdf::47                      0                       # What write queue length does an incoming req see
system.mem_ctrls.wrQLenPdf::48                      0                       # What write queue length does an incoming req see
system.mem_ctrls.wrQLenPdf::49                      0                       # What write queue length does an incoming req see
system.mem_ctrls.wrQLenPdf::50                      0                       # What write queue length does an incoming req see
system.mem_ctrls.wrQLenPdf::51                      0                       # What write queue length does an incoming req see
system.mem_ctrls.wrQLenPdf::52                      0                       # What write queue length does an incoming req see
system.mem_ctrls.wrQLenPdf::53                      0                       # What write queue length does an incoming req see
system.mem_ctrls.wrQLenPdf::54                      0                       # What write queue length does an incoming req see
system.mem_ctrls.wrQLenPdf::55                      0                       # What write queue length does an incoming req see
system.mem_ctrls.wrQLenPdf::56                      0                       # What write queue length does an incoming req see
system.mem_ctrls.wrQLenPdf::57                      0                       # What write queue length does an incoming req see
system.mem_ctrls.wrQLenPdf::58                      0                       # What write queue length does an incoming req see
system.mem_ctrls.wrQLenPdf::59                      0                       # What write queue length does an incoming req see
system.mem_ctrls.wrQLenPdf::60                      0                       # What write queue length does an incoming req see
system.mem_ctrls.wrQLenPdf::61                      0                       # What write queue length does an incoming req see
system.mem_ctrls.wrQLenPdf::62                      0                       # What write queue length does an incoming req see
system.mem_ctrls.wrQLenPdf::63                      0                       # What write queue length does an incoming req see
system.mem_ctrls.bytesPerActivate::samples         4645                       # Bytes accessed per row activation
system.mem_ctrls.bytesPerActivate::mean    102.758235                       # Bytes accessed per row activation
system.mem_ctrls.bytesPerActivate::gmean    78.578307                       # Bytes accessed per row activation
system.mem_ctrls.bytesPerActivate::stdev   128.603074                       # Bytes accessed per row activation
system.mem_ctrls.bytesPerActivate::0-127         3990     85.90%     85.90% # Bytes accessed per row activation
system.mem_ctrls.bytesPerActivate::128-255          288      6.20%     92.10% # Bytes accessed per row activation
system.mem_ctrls.bytesPerActivate::256-383          112      2.41%     94.51% # Bytes accessed per row activation
system.mem_ctrls.bytesPerActivate::384-511           92      1.98%     96.49% # Bytes accessed per row activation
system.mem_ctrls.bytesPerActivate::512-639           80      1.72%     98.21% # Bytes accessed per row activation
system.mem_ctrls.bytesPerActivate::640-767           43      0.93%     99.14% # Bytes accessed per row activation
system.mem_ctrls.bytesPerActivate::768-895           12      0.26%     99.40% # Bytes accessed per row activation
system.mem_ctrls.bytesPerActivate::896-1023            7      0.15%     99.55% # Bytes accessed per row activation
system.mem_ctrls.bytesPerActivate::1024-1151           21      0.45%    100.00% # Bytes accessed per row activation
system.mem_ctrls.bytesPerActivate::total         4645                       # Bytes accessed per row activation
system.mem_ctrls.rdPerTurnAround::samples          201                       # Reads before turning the bus around for writes
system.mem_ctrls.rdPerTurnAround::mean      19.208955                       # Reads before turning the bus around for writes
system.mem_ctrls.rdPerTurnAround::gmean     19.103846                       # Reads before turning the bus around for writes
system.mem_ctrls.rdPerTurnAround::stdev      2.214976                       # Reads before turning the bus around for writes
system.mem_ctrls.rdPerTurnAround::16-17            16      7.96%      7.96% # Reads before turning the bus around for writes
system.mem_ctrls.rdPerTurnAround::18-19           114     56.72%     64.68% # Reads before turning the bus around for writes
system.mem_ctrls.rdPerTurnAround::20-21            58     28.86%     93.53% # Reads before turning the bus around for writes
system.mem_ctrls.rdPerTurnAround::22-23             5      2.49%     96.02% # Reads before turning the bus around for writes
system.mem_ctrls.rdPerTurnAround::24-25             1      0.50%     96.52% # Reads before turning the bus around for writes
system.mem_ctrls.rdPerTurnAround::26-27             4      1.99%     98.51% # Reads before turning the bus around for writes
system.mem_ctrls.rdPerTurnAround::28-29             1      0.50%     99.00% # Reads before turning the bus around for writes
system.mem_ctrls.rdPerTurnAround::30-31             1      0.50%     99.50% # Reads before turning the bus around for writes
system.mem_ctrls.rdPerTurnAround::34-35             1      0.50%    100.00% # Reads before turning the bus around for writes
system.mem_ctrls.rdPerTurnAround::total           201                       # Reads before turning the bus around for writes
system.mem_ctrls.wrPerTurnAround::samples          201                       # Writes before turning the bus around for reads
system.mem_ctrls.wrPerTurnAround::mean      17.781095                       # Writes before turning the bus around for reads
system.mem_ctrls.wrPerTurnAround::gmean     17.769746                       # Writes before turning the bus around for reads
system.mem_ctrls.wrPerTurnAround::stdev      0.617933                       # Writes before turning the bus around for reads
system.mem_ctrls.wrPerTurnAround::16               21     10.45%     10.45% # Writes before turning the bus around for reads
system.mem_ctrls.wrPerTurnAround::17                2      1.00%     11.44% # Writes before turning the bus around for reads
system.mem_ctrls.wrPerTurnAround::18              178     88.56%    100.00% # Writes before turning the bus around for reads
system.mem_ctrls.wrPerTurnAround::total           201                       # Writes before turning the bus around for reads
system.mem_ctrls.totQLat                    267022500                       # Total ticks spent queuing
system.mem_ctrls.totMemAccLat               339828750                       # Total ticks spent from burst creation until serviced by the DRAM
system.mem_ctrls.totBusLat                   19415000                       # Total ticks spent in databus transfers
system.mem_ctrls.avgQLat                     68767.06                       # Average queueing delay per DRAM burst
system.mem_ctrls.avgBusLat                    5000.00                       # Average bus latency per DRAM burst
system.mem_ctrls.avgMemAccLat                87517.06                       # Average memory access latency per DRAM burst
system.mem_ctrls.avgRdBW                        16.28                       # Average DRAM read bandwidth in MiByte/s
system.mem_ctrls.avgWrBW                        14.98                       # Average achieved write bandwidth in MiByte/s
system.mem_ctrls.avgRdBWSys                     16.28                       # Average system read bandwidth in MiByte/s
system.mem_ctrls.avgWrBWSys                     15.02                       # Average system write bandwidth in MiByte/s
system.mem_ctrls.peakBW                      12800.00                       # Theoretical peak bandwidth in MiByte/s
system.mem_ctrls.busUtil                         0.24                       # Data bus utilization in percentage
system.mem_ctrls.busUtilRead                     0.13                       # Data bus utilization in percentage for reads
system.mem_ctrls.busUtilWrite                    0.12                       # Data bus utilization in percentage for writes
system.mem_ctrls.avgRdQLen                       1.00                       # Average read queue length when enqueuing
system.mem_ctrls.avgWrQLen                      24.60                       # Average write queue length when enqueuing
system.mem_ctrls.readRowHits                       57                       # Number of row buffer hits during reads
system.mem_ctrls.writeRowHits                    2756                       # Number of row buffer hits during writes
system.mem_ctrls.readRowHitRate                  1.47                       # Row buffer hit rate for reads
system.mem_ctrls.writeRowHitRate                76.90                       # Row buffer hit rate for writes
system.mem_ctrls.avgGap                    2045029.93                       # Average gap between requests
system.mem_ctrls.pageHitRate                    37.67                       # Row buffer hit rate, read and write combined
system.mem_ctrls_0.actEnergy                 23583420                       # Energy for activate commands per rank (pJ)
system.mem_ctrls_0.preEnergy                 12534885                       # Energy for precharge commands per rank (pJ)
system.mem_ctrls_0.readEnergy                19049520                       # Energy for read commands per rank (pJ)
system.mem_ctrls_0.writeEnergy               12909060                       # Energy for write commands per rank (pJ)
system.mem_ctrls_0.refreshEnergy         1232967840.000000                       # Energy for refresh commands per rank (pJ)
system.mem_ctrls_0.actBackEnergy            531946230                       # Energy for active background per rank (pJ)
system.mem_ctrls_0.preBackEnergy             49664640                       # Energy for precharge background per rank (pJ)
system.mem_ctrls_0.actPowerDownEnergy      3324071280                       # Energy for active power-down per rank (pJ)
system.mem_ctrls_0.prePowerDownEnergy      2059984320                       # Energy for precharge power-down per rank (pJ)
system.mem_ctrls_0.selfRefreshEnergy        443164500                       # Energy for self refresh per rank (pJ)
system.mem_ctrls_0.totalEnergy             7710590505                       # Total energy per rank (pJ)
system.mem_ctrls_0.averagePower            505.038102                       # Core power per rank (mW)
system.mem_ctrls_0.totalIdleTime          13968568750                       # Total Idle time Per DRAM Rank
system.mem_ctrls_0.memoryStateTime::IDLE     79354250                       # Time in different power states
system.mem_ctrls_0.memoryStateTime::REF     523048000                       # Time in different power states
system.mem_ctrls_0.memoryStateTime::SREF   1315684125                       # Time in different power states
system.mem_ctrls_0.memoryStateTime::PRE_PDN   5364511750                       # Time in different power states
system.mem_ctrls_0.memoryStateTime::ACT     695296750                       # Time in different power states
system.mem_ctrls_0.memoryStateTime::ACT_PDN   7289449250                       # Time in different power states
system.mem_ctrls_1.actEnergy                  9574740                       # Energy for activate commands per rank (pJ)
system.mem_ctrls_1.preEnergy                  5092890                       # Energy for precharge commands per rank (pJ)
system.mem_ctrls_1.readEnergy                 8675100                       # Energy for read commands per rank (pJ)
system.mem_ctrls_1.writeEnergy                5747220                       # Energy for write commands per rank (pJ)
system.mem_ctrls_1.refreshEnergy         830378640.000000                       # Energy for refresh commands per rank (pJ)
system.mem_ctrls_1.actBackEnergy            288019860                       # Energy for active background per rank (pJ)
system.mem_ctrls_1.preBackEnergy             34444320                       # Energy for precharge background per rank (pJ)
system.mem_ctrls_1.actPowerDownEnergy      1876522080                       # Energy for active power-down per rank (pJ)
system.mem_ctrls_1.prePowerDownEnergy      1646232480                       # Energy for precharge power-down per rank (pJ)
system.mem_ctrls_1.selfRefreshEnergy       1579985040                       # Energy for self refresh per rank (pJ)
system.mem_ctrls_1.totalEnergy             6286306380                       # Total energy per rank (pJ)
system.mem_ctrls_1.averagePower            411.748522                       # Core power per rank (mW)
system.mem_ctrls_1.totalIdleTime          14542326250                       # Total Idle time Per DRAM Rank
system.mem_ctrls_1.memoryStateTime::IDLE     56722250                       # Time in different power states
system.mem_ctrls_1.memoryStateTime::REF     352550000                       # Time in different power states
system.mem_ctrls_1.memoryStateTime::SREF   6140147500                       # Time in different power states
system.mem_ctrls_1.memoryStateTime::PRE_PDN   4287077875                       # Time in different power states
system.mem_ctrls_1.memoryStateTime::ACT     315659750                       # Time in different power states
system.mem_ctrls_1.memoryStateTime::ACT_PDN   4115186750                       # Time in different power states
system.pwrStateResidencyTicks::UNDEFINED  15267344125                       # Cumulative time (in ticks) in various power states
system.cpu0.branchPred.lookups               13313605                       # Number of BP lookups
system.cpu0.branchPred.condPredicted         13313605                       # Number of conditional branches predicted
system.cpu0.branchPred.condIncorrect          1085707                       # Number of conditional branches incorrect
system.cpu0.branchPred.BTBLookups            11037436                       # Number of BTB lookups
system.cpu0.branchPred.BTBHits                      0                       # Number of BTB hits
system.cpu0.branchPred.BTBCorrect                   0                       # Number of correct BTB predictions (this stat may not work properly.
system.cpu0.branchPred.BTBHitPct             0.000000                       # BTB Hit Percentage
system.cpu0.branchPred.usedRAS                 981907                       # Number of times the RAS was used to get a target.
system.cpu0.branchPred.RASInCorrect            209770                       # Number of incorrect RAS predictions.
system.cpu0.branchPred.indirectLookups       11037436                       # Number of indirect predictor lookups.
system.cpu0.branchPred.indirectHits           3634973                       # Number of indirect target hits.
system.cpu0.branchPred.indirectMisses         7402463                       # Number of indirect misses.
system.cpu0.branchPredindirectMispredicted       778485                       # Number of mispredicted indirect branches.
system.cpu_voltage_domain.voltage                   1                       # Voltage in Volts
system.cpu_clk_domain.clock                       500                       # Clock period in ticks
system.cpu0.dtb.walker.pwrStateResidencyTicks::UNDEFINED  15267344125                       # Cumulative time (in ticks) in various power states
system.cpu0.dtb.rdAccesses                   10006783                       # TLB accesses on read requests
system.cpu0.dtb.wrAccesses                    7555387                       # TLB accesses on write requests
system.cpu0.dtb.rdMisses                       135314                       # TLB misses on read requests
system.cpu0.dtb.wrMisses                        49974                       # TLB misses on write requests
system.cpu0.apic_clk_domain.clock                8000                       # Clock period in ticks
system.cpu0.interrupts.pwrStateResidencyTicks::UNDEFINED  15267344125                       # Cumulative time (in ticks) in various power states
system.cpu0.itb.walker.pwrStateResidencyTicks::UNDEFINED  15267344125                       # Cumulative time (in ticks) in various power states
system.cpu0.itb.rdAccesses                          0                       # TLB accesses on read requests
system.cpu0.itb.wrAccesses                    9001398                       # TLB accesses on write requests
system.cpu0.itb.rdMisses                            0                       # TLB misses on read requests
system.cpu0.itb.wrMisses                         9859                       # TLB misses on write requests
system.cpu0.workload.numSyscalls                   24                       # Number of system calls
system.cpu0.pwrStateResidencyTicks::ON    15267344125                       # Cumulative time (in ticks) in various power states
system.cpu0.numCycles                        30534688                       # number of cpu cycles simulated
system.cpu0.numWorkItemsStarted                     0                       # number of work items this cpu started
system.cpu0.numWorkItemsCompleted                   0                       # number of work items this cpu completed
system.cpu0.fetch.icacheStallCycles           9733575                       # Number of cycles fetch is stalled on an Icache miss
system.cpu0.fetch.Insts                      60100009                       # Number of instructions fetch has processed
system.cpu0.fetch.Branches                   13313605                       # Number of branches that fetch encountered
system.cpu0.fetch.predictedBranches           4616880                       # Number of branches that fetch has predicted taken
system.cpu0.fetch.Cycles                     19658630                       # Number of cycles fetch has run and was not squashing or blocked
system.cpu0.fetch.SquashCycles                2181890                       # Number of cycles fetch has spent squashing
system.cpu0.fetch.TlbCycles                         2                       # Number of cycles fetch has spent waiting for tlb
system.cpu0.fetch.MiscStallCycles                6171                       # Number of cycles fetch has spent waiting on interrupts, or bad addresses, or out of MSHRs
system.cpu0.fetch.PendingTrapStallCycles        45087                       # Number of stall cycles due to pending traps
system.cpu0.fetch.CacheLines                  8991539                       # Number of cache lines fetched
system.cpu0.fetch.IcacheSquashes               269079                       # Number of outstanding Icache misses that were squashed
system.cpu0.fetch.rateDist::samples          30534410                       # Number of instructions fetched each cycle (Total)
system.cpu0.fetch.rateDist::mean             3.761395                       # Number of instructions fetched each cycle (Total)
system.cpu0.fetch.rateDist::stdev            3.578162                       # Number of instructions fetched each cycle (Total)
system.cpu0.fetch.rateDist::underflows              0      0.00%      0.00% # Number of instructions fetched each cycle (Total)
system.cpu0.fetch.rateDist::0                12242145     40.09%     40.09% # Number of instructions fetched each cycle (Total)
system.cpu0.fetch.rateDist::1                  865017      2.83%     42.93% # Number of instructions fetched each cycle (Total)
system.cpu0.fetch.rateDist::2                 1251997      4.10%     47.03% # Number of instructions fetched each cycle (Total)
system.cpu0.fetch.rateDist::3                 1416745      4.64%     51.67% # Number of instructions fetched each cycle (Total)
system.cpu0.fetch.rateDist::4                 1125671      3.69%     55.35% # Number of instructions fetched each cycle (Total)
system.cpu0.fetch.rateDist::5                 1119922      3.67%     59.02% # Number of instructions fetched each cycle (Total)
system.cpu0.fetch.rateDist::6                 1038582      3.40%     62.42% # Number of instructions fetched each cycle (Total)
system.cpu0.fetch.rateDist::7                  895691      2.93%     65.36% # Number of instructions fetched each cycle (Total)
system.cpu0.fetch.rateDist::8                10578640     34.64%    100.00% # Number of instructions fetched each cycle (Total)
system.cpu0.fetch.rateDist::overflows               0      0.00%    100.00% # Number of instructions fetched each cycle (Total)
system.cpu0.fetch.rateDist::min_value               0                       # Number of instructions fetched each cycle (Total)
system.cpu0.fetch.rateDist::max_value               8                       # Number of instructions fetched each cycle (Total)
system.cpu0.fetch.rateDist::total            30534410                       # Number of instructions fetched each cycle (Total)
system.cpu0.fetch.branchRate                 0.436016                       # Number of branch fetches per cycle
system.cpu0.fetch.rate                       1.968254                       # Number of inst fetches per cycle
system.cpu0.decode.IdleCycles                 8616496                       # Number of cycles decode is idle
system.cpu0.decode.BlockedCycles              4147891                       # Number of cycles decode is blocked
system.cpu0.decode.RunCycles                 15729512                       # Number of cycles decode is running
system.cpu0.decode.UnblockCycles               949566                       # Number of cycles decode is unblocking
system.cpu0.decode.SquashCycles               1090945                       # Number of cycles decode is squashing
system.cpu0.decode.DecodedInsts             109233124                       # Number of instructions handled by decode
system.cpu0.rename.SquashCycles               1090945                       # Number of cycles rename is squashing
system.cpu0.rename.IdleCycles                 9384436                       # Number of cycles rename is idle
system.cpu0.rename.BlockCycles                3261266                       # Number of cycles rename is blocking
system.cpu0.rename.serializeStallCycles         30739                       # count of cycles rename stalled for serializing inst
system.cpu0.rename.RunCycles                 15842807                       # Number of cycles rename is running
system.cpu0.rename.UnblockCycles               924217                       # Number of cycles rename is unblocking
system.cpu0.rename.RenamedInsts             104127626                       # Number of instructions processed by rename
system.cpu0.rename.ROBFullEvents                 2686                       # Number of times rename has blocked due to ROB full
system.cpu0.rename.IQFullEvents                 63965                       # Number of times rename has blocked due to IQ full
system.cpu0.rename.LQFullEvents                   105                       # Number of times rename has blocked due to LQ full
system.cpu0.rename.SQFullEvents                803230                       # Number of times rename has blocked due to SQ full
system.cpu0.rename.RenamedOperands          110684687                       # Number of destination operands rename has renamed
system.cpu0.rename.RenameLookups            262130960                       # Number of register rename lookups that rename has made
system.cpu0.rename.int_rename_lookups       156500286                       # Number of integer rename lookups
system.cpu0.rename.fp_rename_lookups          3158774                       # Number of floating rename lookups
system.cpu0.rename.CommittedMaps             69032461                       # Number of HB maps that are committed
system.cpu0.rename.UndoneMaps                41652254                       # Number of HB maps that are undone due to squashing
system.cpu0.rename.serializingInsts              1256                       # count of serializing insts renamed
system.cpu0.rename.tempSerializingInsts          1701                       # count of temporary serializing insts renamed
system.cpu0.rename.skidInsts                   918625                       # count of insts added to the skid buffer
system.cpu0.memDep0.insertedLoads            11899068                       # Number of loads inserted to the mem dependence unit.
system.cpu0.memDep0.insertedStores            8999777                       # Number of stores inserted to the mem dependence unit.
system.cpu0.memDep0.conflictingLoads           500505                       # Number of conflicting loads.
system.cpu0.memDep0.conflictingStores          205332                       # Number of conflicting stores.
system.cpu0.iq.iqInstsAdded                  93750819                       # Number of instructions added to the IQ (excludes non-spec)
system.cpu0.iq.iqNonSpecInstsAdded              71189                       # Number of non-speculative instructions added to the IQ
system.cpu0.iq.iqInstsIssued                 83678554                       # Number of instructions issued
system.cpu0.iq.iqSquashedInstsIssued           474293                       # Number of squashed instructions issued
system.cpu0.iq.iqSquashedInstsExamined       29221374                       # Number of squashed instructions iterated over during squash; mainly for profiling
system.cpu0.iq.iqSquashedOperandsExamined     42534846                       # Number of squashed operands that are examined and possibly removed from graph
system.cpu0.iq.iqSquashedNonSpecRemoved         71165                       # Number of squashed non-spec instructions that were removed
system.cpu0.iq.issued_per_cycle::samples     30534410                       # Number of insts issued each cycle
system.cpu0.iq.issued_per_cycle::mean        2.740467                       # Number of insts issued each cycle
system.cpu0.iq.issued_per_cycle::stdev       2.524105                       # Number of insts issued each cycle
system.cpu0.iq.issued_per_cycle::underflows            0      0.00%      0.00% # Number of insts issued each cycle
system.cpu0.iq.issued_per_cycle::0            9687446     31.73%     31.73% # Number of insts issued each cycle
system.cpu0.iq.issued_per_cycle::1            2851936      9.34%     41.07% # Number of insts issued each cycle
system.cpu0.iq.issued_per_cycle::2            3097251     10.14%     51.21% # Number of insts issued each cycle
system.cpu0.iq.issued_per_cycle::3            3118864     10.21%     61.42% # Number of insts issued each cycle
system.cpu0.iq.issued_per_cycle::4            3171129     10.39%     71.81% # Number of insts issued each cycle
system.cpu0.iq.issued_per_cycle::5            2787951      9.13%     80.94% # Number of insts issued each cycle
system.cpu0.iq.issued_per_cycle::6            3125303     10.24%     91.18% # Number of insts issued each cycle
system.cpu0.iq.issued_per_cycle::7            1656805      5.43%     96.60% # Number of insts issued each cycle
system.cpu0.iq.issued_per_cycle::8            1037725      3.40%    100.00% # Number of insts issued each cycle
system.cpu0.iq.issued_per_cycle::overflows            0      0.00%    100.00% # Number of insts issued each cycle
system.cpu0.iq.issued_per_cycle::min_value            0                       # Number of insts issued each cycle
system.cpu0.iq.issued_per_cycle::max_value            8                       # Number of insts issued each cycle
system.cpu0.iq.issued_per_cycle::total       30534410                       # Number of insts issued each cycle
system.cpu0.iq.fu_full::No_OpClass                  0      0.00%      0.00% # attempts to use FU when none available
system.cpu0.iq.fu_full::IntAlu                 825181     73.72%     73.72% # attempts to use FU when none available
system.cpu0.iq.fu_full::IntMult                     0      0.00%     73.72% # attempts to use FU when none available
system.cpu0.iq.fu_full::IntDiv                      0      0.00%     73.72% # attempts to use FU when none available
system.cpu0.iq.fu_full::FloatAdd                14231      1.27%     74.99% # attempts to use FU when none available
system.cpu0.iq.fu_full::FloatCmp                    0      0.00%     74.99% # attempts to use FU when none available
system.cpu0.iq.fu_full::FloatCvt                    0      0.00%     74.99% # attempts to use FU when none available
system.cpu0.iq.fu_full::FloatMult                   0      0.00%     74.99% # attempts to use FU when none available
system.cpu0.iq.fu_full::FloatMultAcc                0      0.00%     74.99% # attempts to use FU when none available
system.cpu0.iq.fu_full::FloatDiv                    0      0.00%     74.99% # attempts to use FU when none available
system.cpu0.iq.fu_full::FloatMisc                   0      0.00%     74.99% # attempts to use FU when none available
system.cpu0.iq.fu_full::FloatSqrt                   0      0.00%     74.99% # attempts to use FU when none available
system.cpu0.iq.fu_full::SimdAdd                     0      0.00%     74.99% # attempts to use FU when none available
system.cpu0.iq.fu_full::SimdAddAcc                  0      0.00%     74.99% # attempts to use FU when none available
system.cpu0.iq.fu_full::SimdAlu                     0      0.00%     74.99% # attempts to use FU when none available
system.cpu0.iq.fu_full::SimdCmp                     0      0.00%     74.99% # attempts to use FU when none available
system.cpu0.iq.fu_full::SimdCvt                     0      0.00%     74.99% # attempts to use FU when none available
system.cpu0.iq.fu_full::SimdMisc                    0      0.00%     74.99% # attempts to use FU when none available
system.cpu0.iq.fu_full::SimdMult                    0      0.00%     74.99% # attempts to use FU when none available
system.cpu0.iq.fu_full::SimdMultAcc                 0      0.00%     74.99% # attempts to use FU when none available
system.cpu0.iq.fu_full::SimdShift                   0      0.00%     74.99% # attempts to use FU when none available
system.cpu0.iq.fu_full::SimdShiftAcc                0      0.00%     74.99% # attempts to use FU when none available
system.cpu0.iq.fu_full::SimdSqrt                    0      0.00%     74.99% # attempts to use FU when none available
system.cpu0.iq.fu_full::SimdFloatAdd                0      0.00%     74.99% # attempts to use FU when none available
system.cpu0.iq.fu_full::SimdFloatAlu                0      0.00%     74.99% # attempts to use FU when none available
system.cpu0.iq.fu_full::SimdFloatCmp                0      0.00%     74.99% # attempts to use FU when none available
system.cpu0.iq.fu_full::SimdFloatCvt                0      0.00%     74.99% # attempts to use FU when none available
system.cpu0.iq.fu_full::SimdFloatDiv                0      0.00%     74.99% # attempts to use FU when none available
system.cpu0.iq.fu_full::SimdFloatMisc               0      0.00%     74.99% # attempts to use FU when none available
system.cpu0.iq.fu_full::SimdFloatMult               0      0.00%     74.99% # attempts to use FU when none available
system.cpu0.iq.fu_full::SimdFloatMultAcc            0      0.00%     74.99% # attempts to use FU when none available
system.cpu0.iq.fu_full::SimdFloatSqrt               0      0.00%     74.99% # attempts to use FU when none available
system.cpu0.iq.fu_full::MemRead                100435      8.97%     83.96% # attempts to use FU when none available
system.cpu0.iq.fu_full::MemWrite                85686      7.65%     91.62% # attempts to use FU when none available
system.cpu0.iq.fu_full::FloatMemRead              578      0.05%     91.67% # attempts to use FU when none available
system.cpu0.iq.fu_full::FloatMemWrite           93264      8.33%    100.00% # attempts to use FU when none available
system.cpu0.iq.fu_full::IprAccess                   0      0.00%    100.00% # attempts to use FU when none available
system.cpu0.iq.fu_full::InstPrefetch                0      0.00%    100.00% # attempts to use FU when none available
system.cpu0.iq.FU_type_0::No_OpClass           508994      0.61%      0.61% # Type of FU issued
system.cpu0.iq.FU_type_0::IntAlu             63402290     75.77%     76.38% # Type of FU issued
system.cpu0.iq.FU_type_0::IntMult               75856      0.09%     76.47% # Type of FU issued
system.cpu0.iq.FU_type_0::IntDiv                87371      0.10%     76.57% # Type of FU issued
system.cpu0.iq.FU_type_0::FloatAdd            1161778      1.39%     77.96% # Type of FU issued
system.cpu0.iq.FU_type_0::FloatCmp                  0      0.00%     77.96% # Type of FU issued
system.cpu0.iq.FU_type_0::FloatCvt                  0      0.00%     77.96% # Type of FU issued
system.cpu0.iq.FU_type_0::FloatMult                 0      0.00%     77.96% # Type of FU issued
system.cpu0.iq.FU_type_0::FloatMultAcc              0      0.00%     77.96% # Type of FU issued
system.cpu0.iq.FU_type_0::FloatDiv                  0      0.00%     77.96% # Type of FU issued
system.cpu0.iq.FU_type_0::FloatMisc                 0      0.00%     77.96% # Type of FU issued
system.cpu0.iq.FU_type_0::FloatSqrt                 0      0.00%     77.96% # Type of FU issued
system.cpu0.iq.FU_type_0::SimdAdd                   0      0.00%     77.96% # Type of FU issued
system.cpu0.iq.FU_type_0::SimdAddAcc                0      0.00%     77.96% # Type of FU issued
system.cpu0.iq.FU_type_0::SimdAlu                   0      0.00%     77.96% # Type of FU issued
system.cpu0.iq.FU_type_0::SimdCmp                   0      0.00%     77.96% # Type of FU issued
system.cpu0.iq.FU_type_0::SimdCvt                   0      0.00%     77.96% # Type of FU issued
system.cpu0.iq.FU_type_0::SimdMisc                  0      0.00%     77.96% # Type of FU issued
system.cpu0.iq.FU_type_0::SimdMult                  0      0.00%     77.96% # Type of FU issued
system.cpu0.iq.FU_type_0::SimdMultAcc               0      0.00%     77.96% # Type of FU issued
system.cpu0.iq.FU_type_0::SimdShift                 0      0.00%     77.96% # Type of FU issued
system.cpu0.iq.FU_type_0::SimdShiftAcc              0      0.00%     77.96% # Type of FU issued
system.cpu0.iq.FU_type_0::SimdSqrt                  0      0.00%     77.96% # Type of FU issued
system.cpu0.iq.FU_type_0::SimdFloatAdd              0      0.00%     77.96% # Type of FU issued
system.cpu0.iq.FU_type_0::SimdFloatAlu              0      0.00%     77.96% # Type of FU issued
system.cpu0.iq.FU_type_0::SimdFloatCmp              0      0.00%     77.96% # Type of FU issued
system.cpu0.iq.FU_type_0::SimdFloatCvt              0      0.00%     77.96% # Type of FU issued
system.cpu0.iq.FU_type_0::SimdFloatDiv              0      0.00%     77.96% # Type of FU issued
system.cpu0.iq.FU_type_0::SimdFloatMisc             0      0.00%     77.96% # Type of FU issued
system.cpu0.iq.FU_type_0::SimdFloatMult             0      0.00%     77.96% # Type of FU issued
system.cpu0.iq.FU_type_0::SimdFloatMultAcc            0      0.00%     77.96% # Type of FU issued
system.cpu0.iq.FU_type_0::SimdFloatSqrt             0      0.00%     77.96% # Type of FU issued
system.cpu0.iq.FU_type_0::MemRead            10158932     12.14%     90.10% # Type of FU issued
system.cpu0.iq.FU_type_0::MemWrite            7597613      9.08%     99.18% # Type of FU issued
system.cpu0.iq.FU_type_0::FloatMemRead         388761      0.46%     99.65% # Type of FU issued
system.cpu0.iq.FU_type_0::FloatMemWrite        296959      0.35%    100.00% # Type of FU issued
system.cpu0.iq.FU_type_0::IprAccess                 0      0.00%    100.00% # Type of FU issued
system.cpu0.iq.FU_type_0::InstPrefetch              0      0.00%    100.00% # Type of FU issued
system.cpu0.iq.FU_type_0::total              83678554                       # Type of FU issued
system.cpu0.iq.rate                          2.740442                       # Inst issue rate
system.cpu0.iq.fu_busy_cnt                    1119375                       # FU busy when requested
system.cpu0.iq.fu_busy_rate                  0.013377                       # FU busy rate (busy events/executed inst)
system.cpu0.iq.int_inst_queue_reads         195522368                       # Number of integer instruction queue reads
system.cpu0.iq.int_inst_queue_writes        119970575                       # Number of integer instruction queue writes
system.cpu0.iq.int_inst_queue_wakeup_accesses     78150883                       # Number of integer instruction queue wakeup accesses
system.cpu0.iq.fp_inst_queue_reads            3962824                       # Number of floating instruction queue reads
system.cpu0.iq.fp_inst_queue_writes           3073946                       # Number of floating instruction queue writes
system.cpu0.iq.fp_inst_queue_wakeup_accesses      1788183                       # Number of floating instruction queue wakeup accesses
system.cpu0.iq.vec_inst_queue_reads                 0                       # Number of vector instruction queue reads
system.cpu0.iq.vec_inst_queue_writes                0                       # Number of vector instruction queue writes
system.cpu0.iq.vec_inst_queue_wakeup_accesses            0                       # Number of vector instruction queue wakeup accesses
system.cpu0.iq.int_alu_accesses              82289576                       # Number of integer alu accesses
system.cpu0.iq.fp_alu_accesses                1999359                       # Number of floating point alu accesses
system.cpu0.iq.vec_alu_accesses                     0                       # Number of vector alu accesses
system.cpu0.iew.lsq.thread0.forwLoads         1252786                       # Number of loads that had data forwarded from stores
system.cpu0.iew.lsq.thread0.invAddrLoads            0                       # Number of loads ignored due to an invalid address
system.cpu0.iew.lsq.thread0.squashedLoads      4164529                       # Number of loads squashed
system.cpu0.iew.lsq.thread0.ignoredResponses        11109                       # Number of memory responses ignored because the instruction is squashed
system.cpu0.iew.lsq.thread0.memOrderViolation         2926                       # Number of memory ordering violations
system.cpu0.iew.lsq.thread0.squashedStores      2663494                       # Number of stores squashed
system.cpu0.iew.lsq.thread0.invAddrSwpfs            0                       # Number of software prefetches ignored due to an invalid address
system.cpu0.iew.lsq.thread0.blockedLoads            0                       # Number of blocked loads due to partial load-store forwarding
system.cpu0.iew.lsq.thread0.rescheduledLoads          181                       # Number of loads that were rescheduled
system.cpu0.iew.lsq.thread0.cacheBlocked            0                       # Number of times an access to memory failed due to the cache being blocked
system.cpu0.iew.iewIdleCycles                       0                       # Number of cycles IEW is idle
system.cpu0.iew.iewSquashCycles               1090945                       # Number of cycles IEW is squashing
system.cpu0.iew.iewBlockCycles                3312261                       # Number of cycles IEW is blocking
system.cpu0.iew.iewUnblockCycles                 5917                       # Number of cycles IEW is unblocking
system.cpu0.iew.iewDispatchedInsts           93822008                       # Number of instructions dispatched to IQ
system.cpu0.iew.iewDispSquashedInsts            19944                       # Number of squashed instructions skipped by dispatch
system.cpu0.iew.iewDispLoadInsts             11899068                       # Number of dispatched load instructions
system.cpu0.iew.iewDispStoreInsts             8999777                       # Number of dispatched store instructions
system.cpu0.iew.iewDispNonSpecInsts             25087                       # Number of dispatched non-speculative instructions
system.cpu0.iew.iewIQFullEvents                   124                       # Number of times the IQ has become full, causing a stall
system.cpu0.iew.iewLSQFullEvents                 5792                       # Number of times the LSQ has become full, causing a stall
system.cpu0.iew.memOrderViolationEvents          2926                       # Number of memory order violations
system.cpu0.iew.predictedTakenIncorrect        300537                       # Number of branches that were predicted taken incorrectly
system.cpu0.iew.predictedNotTakenIncorrect      1133659                       # Number of branches that were predicted not taken incorrectly
system.cpu0.iew.branchMispredicts             1434196                       # Number of branch mispredicts detected at execute
system.cpu0.iew.iewExecutedInsts             81087189                       # Number of executed instructions
system.cpu0.iew.iewExecLoadInsts              9999972                       # Number of load instructions executed
system.cpu0.iew.iewExecSquashedInsts          2591371                       # Number of squashed instructions skipped in execute
system.cpu0.iew.exec_swp                            0                       # number of swp insts executed
system.cpu0.iew.exec_nop                            0                       # number of nop insts executed
system.cpu0.iew.exec_refs                    17547647                       # number of memory reference insts executed
system.cpu0.iew.exec_branches                 8778355                       # Number of branches executed
system.cpu0.iew.exec_stores                   7547675                       # Number of stores executed
system.cpu0.iew.exec_rate                    2.655576                       # Inst execution rate
system.cpu0.iew.wb_sent                      80540308                       # cumulative count of insts sent to commit
system.cpu0.iew.wb_count                     79939066                       # cumulative count of insts written-back
system.cpu0.iew.wb_producers                 55827189                       # num instructions producing a value
system.cpu0.iew.wb_consumers                 87447894                       # num instructions consuming a value
system.cpu0.iew.wb_rate                      2.617976                       # insts written-back per cycle
system.cpu0.iew.wb_fanout                    0.638405                       # average fanout of values written-back
system.cpu0.commit.commitSquashedInsts       29221913                       # The number of squashed insts skipped by commit
system.cpu0.commit.commitNonSpecStalls             24                       # The number of times commit has been forced to stall to communicate backwards
system.cpu0.commit.branchMispredicts          1090262                       # The number of times a branch was mispredicted
system.cpu0.commit.committed_per_cycle::samples     26133987                       # Number of insts commited each cycle
system.cpu0.commit.committed_per_cycle::mean     2.471902                       # Number of insts commited each cycle
system.cpu0.commit.committed_per_cycle::stdev     2.739987                       # Number of insts commited each cycle
system.cpu0.commit.committed_per_cycle::underflows            0      0.00%      0.00% # Number of insts commited each cycle
system.cpu0.commit.committed_per_cycle::0      9249987     35.39%     35.39% # Number of insts commited each cycle
system.cpu0.commit.committed_per_cycle::1      3778590     14.46%     49.85% # Number of insts commited each cycle
system.cpu0.commit.committed_per_cycle::2      2649209     10.14%     59.99% # Number of insts commited each cycle
system.cpu0.commit.committed_per_cycle::3      3600449     13.78%     73.77% # Number of insts commited each cycle
system.cpu0.commit.committed_per_cycle::4      1134826      4.34%     78.11% # Number of insts commited each cycle
system.cpu0.commit.committed_per_cycle::5      1157372      4.43%     82.54% # Number of insts commited each cycle
system.cpu0.commit.committed_per_cycle::6       817017      3.13%     85.66% # Number of insts commited each cycle
system.cpu0.commit.committed_per_cycle::7       478255      1.83%     87.49% # Number of insts commited each cycle
system.cpu0.commit.committed_per_cycle::8      3268282     12.51%    100.00% # Number of insts commited each cycle
system.cpu0.commit.committed_per_cycle::overflows            0      0.00%    100.00% # Number of insts commited each cycle
system.cpu0.commit.committed_per_cycle::min_value            0                       # Number of insts commited each cycle
system.cpu0.commit.committed_per_cycle::max_value            8                       # Number of insts commited each cycle
system.cpu0.commit.committed_per_cycle::total     26133987                       # Number of insts commited each cycle
system.cpu0.commit.committedInsts            34109739                       # Number of instructions committed
system.cpu0.commit.committedOps              64600662                       # Number of ops (including micro ops) committed
system.cpu0.commit.swp_count                        0                       # Number of s/w prefetches committed
system.cpu0.commit.refs                      14070825                       # Number of memory references committed
system.cpu0.commit.loads                      7734538                       # Number of loads committed
system.cpu0.commit.membars                          0                       # Number of memory barriers committed
system.cpu0.commit.branches                   7510913                       # Number of branches committed
system.cpu0.commit.vec_insts                        0                       # Number of committed Vector instructions.
system.cpu0.commit.fp_insts                   1315926                       # Number of committed floating point instructions.
system.cpu0.commit.int_insts                 63612162                       # Number of committed integer instructions.
system.cpu0.commit.function_calls              467369                       # Number of function calls committed.
system.cpu0.commit.op_class_0::No_OpClass       262082      0.41%      0.41% # Class of committed instruction
system.cpu0.commit.op_class_0::IntAlu        49142293     76.07%     76.48% # Class of committed instruction
system.cpu0.commit.op_class_0::IntMult          54839      0.08%     76.56% # Class of committed instruction
system.cpu0.commit.op_class_0::IntDiv           76587      0.12%     76.68% # Class of committed instruction
system.cpu0.commit.op_class_0::FloatAdd        994036      1.54%     78.22% # Class of committed instruction
system.cpu0.commit.op_class_0::FloatCmp             0      0.00%     78.22% # Class of committed instruction
system.cpu0.commit.op_class_0::FloatCvt             0      0.00%     78.22% # Class of committed instruction
system.cpu0.commit.op_class_0::FloatMult            0      0.00%     78.22% # Class of committed instruction
system.cpu0.commit.op_class_0::FloatMultAcc            0      0.00%     78.22% # Class of committed instruction
system.cpu0.commit.op_class_0::FloatDiv             0      0.00%     78.22% # Class of committed instruction
system.cpu0.commit.op_class_0::FloatMisc            0      0.00%     78.22% # Class of committed instruction
system.cpu0.commit.op_class_0::FloatSqrt            0      0.00%     78.22% # Class of committed instruction
system.cpu0.commit.op_class_0::SimdAdd              0      0.00%     78.22% # Class of committed instruction
system.cpu0.commit.op_class_0::SimdAddAcc            0      0.00%     78.22% # Class of committed instruction
system.cpu0.commit.op_class_0::SimdAlu              0      0.00%     78.22% # Class of committed instruction
system.cpu0.commit.op_class_0::SimdCmp              0      0.00%     78.22% # Class of committed instruction
system.cpu0.commit.op_class_0::SimdCvt              0      0.00%     78.22% # Class of committed instruction
system.cpu0.commit.op_class_0::SimdMisc             0      0.00%     78.22% # Class of committed instruction
system.cpu0.commit.op_class_0::SimdMult             0      0.00%     78.22% # Class of committed instruction
system.cpu0.commit.op_class_0::SimdMultAcc            0      0.00%     78.22% # Class of committed instruction
system.cpu0.commit.op_class_0::SimdShift            0      0.00%     78.22% # Class of committed instruction
system.cpu0.commit.op_class_0::SimdShiftAcc            0      0.00%     78.22% # Class of committed instruction
system.cpu0.commit.op_class_0::SimdSqrt             0      0.00%     78.22% # Class of committed instruction
system.cpu0.commit.op_class_0::SimdFloatAdd            0      0.00%     78.22% # Class of committed instruction
system.cpu0.commit.op_class_0::SimdFloatAlu            0      0.00%     78.22% # Class of committed instruction
system.cpu0.commit.op_class_0::SimdFloatCmp            0      0.00%     78.22% # Class of committed instruction
system.cpu0.commit.op_class_0::SimdFloatCvt            0      0.00%     78.22% # Class of committed instruction
system.cpu0.commit.op_class_0::SimdFloatDiv            0      0.00%     78.22% # Class of committed instruction
system.cpu0.commit.op_class_0::SimdFloatMisc            0      0.00%     78.22% # Class of committed instruction
system.cpu0.commit.op_class_0::SimdFloatMult            0      0.00%     78.22% # Class of committed instruction
system.cpu0.commit.op_class_0::SimdFloatMultAcc            0      0.00%     78.22% # Class of committed instruction
system.cpu0.commit.op_class_0::SimdFloatSqrt            0      0.00%     78.22% # Class of committed instruction
system.cpu0.commit.op_class_0::MemRead        7456436     11.54%     89.76% # Class of committed instruction
system.cpu0.commit.op_class_0::MemWrite       6336287      9.81%     99.57% # Class of committed instruction
system.cpu0.commit.op_class_0::FloatMemRead       278102      0.43%    100.00% # Class of committed instruction
system.cpu0.commit.op_class_0::FloatMemWrite            0      0.00%    100.00% # Class of committed instruction
system.cpu0.commit.op_class_0::IprAccess            0      0.00%    100.00% # Class of committed instruction
system.cpu0.commit.op_class_0::InstPrefetch            0      0.00%    100.00% # Class of committed instruction
system.cpu0.commit.op_class_0::total         64600662                       # Class of committed instruction
system.cpu0.commit.bw_lim_events              3268282                       # number cycles where commit BW limit reached
system.cpu0.rob.rob_reads                   116688280                       # The number of ROB reads
system.cpu0.rob.rob_writes                  192132988                       # The number of ROB writes
system.cpu0.timesIdled                             34                       # Number of times that the entire CPU went into an idle state and unscheduled itself
system.cpu0.idleCycles                            278                       # Total number of cycles that the CPU has spent unscheduled due to idling
system.cpu0.committedInsts                   34109739                       # Number of Instructions Simulated
system.cpu0.committedOps                     64600662                       # Number of Ops (including micro ops) Simulated
system.cpu0.cpi                              0.895190                       # CPI: Cycles Per Instruction
system.cpu0.cpi_total                        0.895190                       # CPI: Total CPI of All Threads
system.cpu0.ipc                              1.117082                       # IPC: Instructions Per Cycle
system.cpu0.ipc_total                        1.117082                       # IPC: Total IPC of All Threads
system.cpu0.int_regfile_reads               117275540                       # number of integer regfile reads
system.cpu0.int_regfile_writes               62636261                       # number of integer regfile writes
system.cpu0.fp_regfile_reads                  2516134                       # number of floating regfile reads
system.cpu0.fp_regfile_writes                 1236027                       # number of floating regfile writes
system.cpu0.cc_regfile_reads                 40815932                       # number of cc regfile reads
system.cpu0.cc_regfile_writes                21378979                       # number of cc regfile writes
system.cpu0.misc_regfile_reads               35628046                       # number of misc regfile reads
system.cpu0.dcache.tags.pwrStateResidencyTicks::UNDEFINED  15267344125                       # Cumulative time (in ticks) in various power states
system.cpu0.dcache.tags.replacements             5329                       # number of replacements
system.cpu0.dcache.tags.tagsinuse                1024                       # Cycle average of tags in use
system.cpu0.dcache.tags.total_refs             558184                       # Total number of references to valid blocks.
system.cpu0.dcache.tags.sampled_refs             5329                       # Sample count of references to valid blocks.
system.cpu0.dcache.tags.avg_refs           104.744605                       # Average number of references to valid blocks.
system.cpu0.dcache.tags.warmup_cycle                0                       # Cycle when the warmup percentage was hit.
system.cpu0.dcache.tags.occ_blocks::cpu0.data         1024                       # Average occupied blocks per requestor
system.cpu0.dcache.tags.occ_percent::cpu0.data            1                       # Average percentage of cache occupancy
system.cpu0.dcache.tags.occ_percent::total            1                       # Average percentage of cache occupancy
system.cpu0.dcache.tags.occ_task_id_blocks::1024         1024                       # Occupied blocks per task id
system.cpu0.dcache.tags.age_task_id_blocks_1024::0            4                       # Occupied blocks per task id
system.cpu0.dcache.tags.age_task_id_blocks_1024::1           23                       # Occupied blocks per task id
system.cpu0.dcache.tags.age_task_id_blocks_1024::2          304                       # Occupied blocks per task id
system.cpu0.dcache.tags.age_task_id_blocks_1024::3          433                       # Occupied blocks per task id
system.cpu0.dcache.tags.age_task_id_blocks_1024::4          260                       # Occupied blocks per task id
system.cpu0.dcache.tags.occ_task_id_percent::1024            1                       # Percentage of cache occupancy per task id
system.cpu0.dcache.tags.tag_accesses         59837469                       # Number of tag accesses
system.cpu0.dcache.tags.data_accesses        59837469                       # Number of data accesses
system.cpu0.dcache.pwrStateResidencyTicks::UNDEFINED  15267344125                       # Cumulative time (in ticks) in various power states
system.cpu0.dcache.ReadReq_hits::cpu0.data      8613900                       # number of ReadReq hits
system.cpu0.dcache.ReadReq_hits::total        8613900                       # number of ReadReq hits
system.cpu0.dcache.WriteReq_hits::cpu0.data      6336102                       # number of WriteReq hits
system.cpu0.dcache.WriteReq_hits::total       6336102                       # number of WriteReq hits
system.cpu0.dcache.demand_hits::cpu0.data     14950002                       # number of demand (read+write) hits
system.cpu0.dcache.demand_hits::total        14950002                       # number of demand (read+write) hits
system.cpu0.dcache.overall_hits::cpu0.data     14950002                       # number of overall hits
system.cpu0.dcache.overall_hits::total       14950002                       # number of overall hits
system.cpu0.dcache.ReadReq_misses::cpu0.data         4658                       # number of ReadReq misses
system.cpu0.dcache.ReadReq_misses::total         4658                       # number of ReadReq misses
system.cpu0.dcache.WriteReq_misses::cpu0.data         3375                       # number of WriteReq misses
system.cpu0.dcache.WriteReq_misses::total         3375                       # number of WriteReq misses
system.cpu0.dcache.demand_misses::cpu0.data         8033                       # number of demand (read+write) misses
system.cpu0.dcache.demand_misses::total          8033                       # number of demand (read+write) misses
system.cpu0.dcache.overall_misses::cpu0.data         8033                       # number of overall misses
system.cpu0.dcache.overall_misses::total         8033                       # number of overall misses
system.cpu0.dcache.ReadReq_miss_latency::cpu0.data    183463500                       # number of ReadReq miss cycles
system.cpu0.dcache.ReadReq_miss_latency::total    183463500                       # number of ReadReq miss cycles
system.cpu0.dcache.WriteReq_miss_latency::cpu0.data    464583500                       # number of WriteReq miss cycles
system.cpu0.dcache.WriteReq_miss_latency::total    464583500                       # number of WriteReq miss cycles
system.cpu0.dcache.demand_miss_latency::cpu0.data    648047000                       # number of demand (read+write) miss cycles
system.cpu0.dcache.demand_miss_latency::total    648047000                       # number of demand (read+write) miss cycles
system.cpu0.dcache.overall_miss_latency::cpu0.data    648047000                       # number of overall miss cycles
system.cpu0.dcache.overall_miss_latency::total    648047000                       # number of overall miss cycles
system.cpu0.dcache.ReadReq_accesses::cpu0.data      8618558                       # number of ReadReq accesses(hits+misses)
system.cpu0.dcache.ReadReq_accesses::total      8618558                       # number of ReadReq accesses(hits+misses)
system.cpu0.dcache.WriteReq_accesses::cpu0.data      6339477                       # number of WriteReq accesses(hits+misses)
system.cpu0.dcache.WriteReq_accesses::total      6339477                       # number of WriteReq accesses(hits+misses)
system.cpu0.dcache.demand_accesses::cpu0.data     14958035                       # number of demand (read+write) accesses
system.cpu0.dcache.demand_accesses::total     14958035                       # number of demand (read+write) accesses
system.cpu0.dcache.overall_accesses::cpu0.data     14958035                       # number of overall (read+write) accesses
system.cpu0.dcache.overall_accesses::total     14958035                       # number of overall (read+write) accesses
system.cpu0.dcache.ReadReq_miss_rate::cpu0.data     0.000540                       # miss rate for ReadReq accesses
system.cpu0.dcache.ReadReq_miss_rate::total     0.000540                       # miss rate for ReadReq accesses
system.cpu0.dcache.WriteReq_miss_rate::cpu0.data     0.000532                       # miss rate for WriteReq accesses
system.cpu0.dcache.WriteReq_miss_rate::total     0.000532                       # miss rate for WriteReq accesses
[...]
system.l2.ReadExReq_miss_rate::cpu0.data     0.997021                       # miss rate for ReadExReq accesses
system.l2.ReadExReq_miss_rate::total         0.997021                       # miss rate for ReadExReq accesses
system.l2.ReadCleanReq_miss_rate::cpu0.inst     0.000577                       # miss rate for ReadCleanReq accesses
system.l2.ReadCleanReq_miss_rate::total      0.000577                       # miss rate for ReadCleanReq accesses
system.l2.ReadSharedReq_miss_rate::cpu0.data     0.271298                       # miss rate for ReadSharedReq accesses
system.l2.ReadSharedReq_miss_rate::total     0.271298                       # miss rate for ReadSharedReq accesses
system.l2.demand_miss_rate::cpu0.inst        0.000577                       # miss rate for demand accesses
system.l2.demand_miss_rate::cpu0.data        0.728467                       # miss rate for demand accesses
system.l2.demand_miss_rate::total            0.549922                       # miss rate for demand accesses
system.l2.overall_miss_rate::cpu0.inst       0.000577                       # miss rate for overall accesses
system.l2.overall_miss_rate::cpu0.data       0.728467                       # miss rate for overall accesses
system.l2.overall_miss_rate::total           0.549922                       # miss rate for overall accesses
system.l2.ReadExReq_avg_miss_latency::cpu0.data 135441.440096                       # average ReadExReq miss latency
system.l2.ReadExReq_avg_miss_latency::total 135441.440096                       # average ReadExReq miss latency
system.l2.ReadCleanReq_avg_miss_latency::cpu0.inst        90000                       # average ReadCleanReq miss latency
system.l2.ReadCleanReq_avg_miss_latency::total        90000                       # average ReadCleanReq miss latency
system.l2.ReadSharedReq_avg_miss_latency::cpu0.data 159823.364486                       # average ReadSharedReq miss latency
system.l2.ReadSharedReq_avg_miss_latency::total 159823.364486                       # average ReadSharedReq miss latency
system.l2.demand_avg_miss_latency::cpu0.inst        90000                       # average overall miss latency
system.l2.demand_avg_miss_latency::cpu0.data 138801.648635                       # average overall miss latency
system.l2.demand_avg_miss_latency::total 138789.080608                       # average overall miss latency
system.l2.overall_avg_miss_latency::cpu0.inst        90000                       # average overall miss latency
system.l2.overall_avg_miss_latency::cpu0.data 138801.648635                       # average overall miss latency
system.l2.overall_avg_miss_latency::total 138789.080608                       # average overall miss latency
system.l2.blocked_cycles::no_mshrs                  0                       # number of cycles access was blocked
system.l2.blocked_cycles::no_targets                0                       # number of cycles access was blocked
system.l2.blocked::no_mshrs                         0                       # number of cycles access was blocked
system.l2.blocked::no_targets                       0                       # number of cycles access was blocked
system.l2.avg_blocked_cycles::no_mshrs            nan                       # average number of cycles each access was blocked
system.l2.avg_blocked_cycles::no_targets          nan                       # average number of cycles each access was blocked
system.l2.writebacks::writebacks                 3584                       # number of writebacks
system.l2.writebacks::total                      3584                       # number of writebacks
system.l2.ReadExReq_mshr_misses::cpu0.data         3347                       # number of ReadExReq MSHR misses
system.l2.ReadExReq_mshr_misses::total           3347                       # number of ReadExReq MSHR misses
system.l2.ReadCleanReq_mshr_misses::cpu0.inst            1                       # number of ReadCleanReq MSHR misses
system.l2.ReadCleanReq_mshr_misses::total            1                       # number of ReadCleanReq MSHR misses
system.l2.ReadSharedReq_mshr_misses::cpu0.data          535                       # number of ReadSharedReq MSHR misses
system.l2.ReadSharedReq_mshr_misses::total          535                       # number of ReadSharedReq MSHR misses
system.l2.demand_mshr_misses::cpu0.inst             1                       # number of demand (read+write) MSHR misses
system.l2.demand_mshr_misses::cpu0.data          3882                       # number of demand (read+write) MSHR misses
system.l2.demand_mshr_misses::total              3883                       # number of demand (read+write) MSHR misses
system.l2.overall_mshr_misses::cpu0.inst            1                       # number of overall MSHR misses
system.l2.overall_mshr_misses::cpu0.data         3882                       # number of overall MSHR misses
system.l2.overall_mshr_misses::total             3883                       # number of overall MSHR misses
system.l2.ReadExReq_mshr_miss_latency::cpu0.data    419852500                       # number of ReadExReq MSHR miss cycles
system.l2.ReadExReq_mshr_miss_latency::total    419852500                       # number of ReadExReq MSHR miss cycles
system.l2.ReadCleanReq_mshr_miss_latency::cpu0.inst        80000                       # number of ReadCleanReq MSHR miss cycles
system.l2.ReadCleanReq_mshr_miss_latency::total        80000                       # number of ReadCleanReq MSHR miss cycles
system.l2.ReadSharedReq_mshr_miss_latency::cpu0.data     80155500                       # number of ReadSharedReq MSHR miss cycles
system.l2.ReadSharedReq_mshr_miss_latency::total     80155500                       # number of ReadSharedReq MSHR miss cycles
system.l2.demand_mshr_miss_latency::cpu0.inst        80000                       # number of demand (read+write) MSHR miss cycles
system.l2.demand_mshr_miss_latency::cpu0.data    500008000                       # number of demand (read+write) MSHR miss cycles
system.l2.demand_mshr_miss_latency::total    500088000                       # number of demand (read+write) MSHR miss cycles
system.l2.overall_mshr_miss_latency::cpu0.inst        80000                       # number of overall MSHR miss cycles
system.l2.overall_mshr_miss_latency::cpu0.data    500008000                       # number of overall MSHR miss cycles
system.l2.overall_mshr_miss_latency::total    500088000                       # number of overall MSHR miss cycles
system.l2.ReadExReq_mshr_miss_rate::cpu0.data     0.997021                       # mshr miss rate for ReadExReq accesses
system.l2.ReadExReq_mshr_miss_rate::total     0.997021                       # mshr miss rate for ReadExReq accesses
system.l2.ReadCleanReq_mshr_miss_rate::cpu0.inst     0.000577                       # mshr miss rate for ReadCleanReq accesses
system.l2.ReadCleanReq_mshr_miss_rate::total     0.000577                       # mshr miss rate for ReadCleanReq accesses
system.l2.ReadSharedReq_mshr_miss_rate::cpu0.data     0.271298                       # mshr miss rate for ReadSharedReq accesses
system.l2.ReadSharedReq_mshr_miss_rate::total     0.271298                       # mshr miss rate for ReadSharedReq accesses
system.l2.demand_mshr_miss_rate::cpu0.inst     0.000577                       # mshr miss rate for demand accesses
system.l2.demand_mshr_miss_rate::cpu0.data     0.728467                       # mshr miss rate for demand accesses
system.l2.demand_mshr_miss_rate::total       0.549922                       # mshr miss rate for demand accesses
system.l2.overall_mshr_miss_rate::cpu0.inst     0.000577                       # mshr miss rate for overall accesses
system.l2.overall_mshr_miss_rate::cpu0.data     0.728467                       # mshr miss rate for overall accesses
system.l2.overall_mshr_miss_rate::total      0.549922                       # mshr miss rate for overall accesses
system.l2.ReadExReq_avg_mshr_miss_latency::cpu0.data 125441.440096                       # average ReadExReq mshr miss latency
system.l2.ReadExReq_avg_mshr_miss_latency::total 125441.440096                       # average ReadExReq mshr miss latency
system.l2.ReadCleanReq_avg_mshr_miss_latency::cpu0.inst        80000                       # average ReadCleanReq mshr miss latency
system.l2.ReadCleanReq_avg_mshr_miss_latency::total        80000                       # average ReadCleanReq mshr miss latency
system.l2.ReadSharedReq_avg_mshr_miss_latency::cpu0.data 149823.364486                       # average ReadSharedReq mshr miss latency
system.l2.ReadSharedReq_avg_mshr_miss_latency::total 149823.364486                       # average ReadSharedReq mshr miss latency
system.l2.demand_avg_mshr_miss_latency::cpu0.inst        80000                       # average overall mshr miss latency
system.l2.demand_avg_mshr_miss_latency::cpu0.data 128801.648635                       # average overall mshr miss latency
system.l2.demand_avg_mshr_miss_latency::total 128789.080608                       # average overall mshr miss latency
system.l2.overall_avg_mshr_miss_latency::cpu0.inst        80000                       # average overall mshr miss latency
system.l2.overall_avg_mshr_miss_latency::cpu0.data 128801.648635                       # average overall mshr miss latency
system.l2.overall_avg_mshr_miss_latency::total 128789.080608                       # average overall mshr miss latency
system.membus.snoop_filter.tot_requests          7648                       # Total number of requests made to the snoop filter.
system.membus.snoop_filter.hit_single_requests         3765                       # Number of requests hitting in the snoop filter with a single holder of the requested data.
system.membus.snoop_filter.hit_multi_requests            0                       # Number of requests hitting in the snoop filter with multiple (>1) holders of the requested data.
system.membus.snoop_filter.tot_snoops               0                       # Total number of snoops made to the snoop filter.
system.membus.snoop_filter.hit_single_snoops            0                       # Number of snoops hitting in the snoop filter with a single holder of the requested data.
system.membus.snoop_filter.hit_multi_snoops            0                       # Number of snoops hitting in the snoop filter with multiple (>1) holders of the requested data.
system.membus.pwrStateResidencyTicks::UNDEFINED  15267344125                       # Cumulative time (in ticks) in various power states
system.membus.trans_dist::ReadResp                536                       # Transaction distribution
system.membus.trans_dist::WritebackDirty         3584                       # Transaction distribution
system.membus.trans_dist::CleanEvict              181                       # Transaction distribution
system.membus.trans_dist::ReadExReq              3347                       # Transaction distribution
system.membus.trans_dist::ReadExResp             3347                       # Transaction distribution
system.membus.trans_dist::ReadSharedReq           536                       # Transaction distribution
system.membus.pkt_count_system.l2.mem_side::system.mem_ctrls.port        11531                       # Packet count per connected master and slave (bytes)
system.membus.pkt_count_system.l2.mem_side::total        11531                       # Packet count per connected master and slave (bytes)
system.membus.pkt_count::total                  11531                       # Packet count per connected master and slave (bytes)
system.membus.pkt_size_system.l2.mem_side::system.mem_ctrls.port       477888                       # Cumulative packet size per connected master and slave (bytes)
system.membus.pkt_size_system.l2.mem_side::total       477888                       # Cumulative packet size per connected master and slave (bytes)
system.membus.pkt_size::total                  477888                       # Cumulative packet size per connected master and slave (bytes)
system.membus.snoops                                0                       # Total snoops (count)
system.membus.snoopTraffic                          0                       # Total snoop traffic (bytes)
system.membus.snoop_fanout::samples              3883                       # Request fanout histogram
system.membus.snoop_fanout::mean                    0                       # Request fanout histogram
system.membus.snoop_fanout::stdev                   0                       # Request fanout histogram
system.membus.snoop_fanout::underflows              0      0.00%      0.00% # Request fanout histogram
system.membus.snoop_fanout::0                    3883    100.00%    100.00% # Request fanout histogram
system.membus.snoop_fanout::1                       0      0.00%    100.00% # Request fanout histogram
system.membus.snoop_fanout::overflows               0      0.00%    100.00% # Request fanout histogram
system.membus.snoop_fanout::min_value               0                       # Request fanout histogram
system.membus.snoop_fanout::max_value               0                       # Request fanout histogram
system.membus.snoop_fanout::total                3883                       # Request fanout histogram
system.membus.reqLayer8.occupancy            22982500                       # Layer occupancy (ticks)
system.membus.reqLayer8.utilization               0.2                       # Layer utilization (%)
system.membus.respLayer1.occupancy           21414250                       # Layer occupancy (ticks)
system.membus.respLayer1.utilization              0.1                       # Layer utilization (%)
system.tol2bus.snoop_filter.tot_requests        14122                       # Total number of requests made to the snoop filter.
system.tol2bus.snoop_filter.hit_single_requests         7060                       # Number of requests hitting in the snoop filter with a single holder of the requested data.
system.tol2bus.snoop_filter.hit_multi_requests            7                       # Number of requests hitting in the snoop filter with multiple (>1) holders of the requested data.
system.tol2bus.snoop_filter.tot_snoops            119                       # Total number of snoops made to the snoop filter.
system.tol2bus.snoop_filter.hit_single_snoops          119                       # Number of snoops hitting in the snoop filter with a single holder of the requested data.
system.tol2bus.snoop_filter.hit_multi_snoops            0                       # Number of snoops hitting in the snoop filter with multiple (>1) holders of the requested data.
system.tol2bus.pwrStateResidencyTicks::UNDEFINED  15267344125                       # Cumulative time (in ticks) in various power states
system.tol2bus.trans_dist::ReadResp              3704                       # Transaction distribution
system.tol2bus.trans_dist::WritebackDirty         7848                       # Transaction distribution
system.tol2bus.trans_dist::WritebackClean         1732                       # Transaction distribution
system.tol2bus.trans_dist::CleanEvict            1365                       # Transaction distribution
system.tol2bus.trans_dist::ReadExReq             3357                       # Transaction distribution
system.tol2bus.trans_dist::ReadExResp            3357                       # Transaction distribution
system.tol2bus.trans_dist::ReadCleanReq          1732                       # Transaction distribution
system.tol2bus.trans_dist::ReadSharedReq         1972                       # Transaction distribution
system.tol2bus.pkt_count_system.cpu0.icache.mem_side::system.l2.cpu_side         5196                       # Packet count per connected master and slave (bytes)
system.tol2bus.pkt_count_system.cpu0.dcache.mem_side::system.l2.cpu_side        15987                       # Packet count per connected master and slave (bytes)
system.tol2bus.pkt_count::total                 21183                       # Packet count per connected master and slave (bytes)
system.tol2bus.pkt_size_system.cpu0.icache.mem_side::system.l2.cpu_side       221696                       # Cumulative packet size per connected master and slave (bytes)
system.tol2bus.pkt_size_system.cpu0.dcache.mem_side::system.l2.cpu_side       613952                       # Cumulative packet size per connected master and slave (bytes)
system.tol2bus.pkt_size::total                 835648                       # Cumulative packet size per connected master and slave (bytes)
system.tol2bus.snoops                            3884                       # Total snoops (count)
system.tol2bus.snoopTraffic                    229376                       # Total snoop traffic (bytes)
system.tol2bus.snoop_fanout::samples            10945                       # Request fanout histogram
system.tol2bus.snoop_fanout::mean            0.011421                       # Request fanout histogram
system.tol2bus.snoop_fanout::stdev           0.106261                       # Request fanout histogram
system.tol2bus.snoop_fanout::underflows             0      0.00%      0.00% # Request fanout histogram
system.tol2bus.snoop_fanout::0                  10820     98.86%     98.86% # Request fanout histogram
system.tol2bus.snoop_fanout::1                    125      1.14%    100.00% # Request fanout histogram
system.tol2bus.snoop_fanout::2                      0      0.00%    100.00% # Request fanout histogram
system.tol2bus.snoop_fanout::3                      0      0.00%    100.00% # Request fanout histogram
system.tol2bus.snoop_fanout::4                      0      0.00%    100.00% # Request fanout histogram
system.tol2bus.snoop_fanout::5                      0      0.00%    100.00% # Request fanout histogram
system.tol2bus.snoop_fanout::6                      0      0.00%    100.00% # Request fanout histogram
system.tol2bus.snoop_fanout::7                      0      0.00%    100.00% # Request fanout histogram
system.tol2bus.snoop_fanout::8                      0      0.00%    100.00% # Request fanout histogram
system.tol2bus.snoop_fanout::9                      0      0.00%    100.00% # Request fanout histogram
system.tol2bus.snoop_fanout::10                     0      0.00%    100.00% # Request fanout histogram
system.tol2bus.snoop_fanout::11                     0      0.00%    100.00% # Request fanout histogram
system.tol2bus.snoop_fanout::12                     0      0.00%    100.00% # Request fanout histogram
system.tol2bus.snoop_fanout::13                     0      0.00%    100.00% # Request fanout histogram
system.tol2bus.snoop_fanout::14                     0      0.00%    100.00% # Request fanout histogram
system.tol2bus.snoop_fanout::15                     0      0.00%    100.00% # Request fanout histogram
system.tol2bus.snoop_fanout::16                     0      0.00%    100.00% # Request fanout histogram
system.tol2bus.snoop_fanout::overflows              0      0.00%    100.00% # Request fanout histogram
system.tol2bus.snoop_fanout::min_value              0                       # Request fanout histogram
system.tol2bus.snoop_fanout::max_value              1                       # Request fanout histogram
system.tol2bus.snoop_fanout::total              10945                       # Request fanout histogram
system.tol2bus.reqLayer0.occupancy           13057000                       # Layer occupancy (ticks)
system.tol2bus.reqLayer0.utilization              0.1                       # Layer utilization (%)
system.tol2bus.respLayer0.occupancy           2598000                       # Layer occupancy (ticks)
system.tol2bus.respLayer0.utilization             0.0                       # Layer utilization (%)
system.tol2bus.respLayer1.occupancy           7993500                       # Layer occupancy (ticks)
system.tol2bus.respLayer1.utilization             0.1                       # Layer utilization (%)

---------- End Simulation Statistics   ----------
