
---------- Begin Simulation Statistics ----------
sim_seconds                                  0.015267                       # Number of seconds simulated
sim_ticks                                 15267344125                       # Number of ticks simulated
final_tick                               2442775060000                       # Number of ticks from beginning of simulation (restored from checkpoints and never reset)
sim_freq                                 1000000000000                       # Frequency of simulated ticks
host_inst_rate                               18673433                       # Simulator instruction rate (inst/s)
host_op_rate                                 34395305                       # Simulator op (including micro ops) rate (op/s)
host_tick_rate                               54217828                       # Simulator tick rate (ticks/s)
host_mem_usage                                2332528                       # Number of bytes of host memory used
host_seconds                                   281.59                       # Real time elapsed on the host
sim_insts                                  5258301642                       # Number of instructions simulated
sim_ops                                    9685465979                       # Number of ops (including micro ops) simulated
system.voltage_domain.voltage                       1                       # Voltage in Volts
system.clk_domain.clock                          1000                       # Clock period in ticks
system.mem_ctrls.pwrStateResidencyTicks::UNDEFINED  15267344125                       # Cumulative time (in ticks) in various power states
system.mem_ctrls.bytes_read::cpu0.data        1211904                       # Number of bytes read from this memory
system.mem_ctrls.bytes_read::total            1211904                       # Number of bytes read from this memory
system.mem_ctrls.bytes_written::writebacks      1035712                       # Number of bytes written to this memory
system.mem_ctrls.bytes_written::total         1035712                       # Number of bytes written to this memory
system.mem_ctrls.num_reads::cpu0.data           18936                       # Number of read requests responded to by this memory
system.mem_ctrls.num_reads::total               18936                       # Number of read requests responded to by this memory
system.mem_ctrls.num_writes::writebacks         16183                       # Number of write requests responded to by this memory
system.mem_ctrls.num_writes::total              16183                       # Number of write requests responded to by this memory
system.mem_ctrls.bw_read::cpu0.data          79378836                       # Total read bandwidth from this memory (bytes/s)
system.mem_ctrls.bw_read::total              79378836                       # Total read bandwidth from this memory (bytes/s)
system.mem_ctrls.bw_write::writebacks        67838387                       # Write bandwidth from this memory (bytes/s)
system.mem_ctrls.bw_write::total             67838387                       # Write bandwidth from this memory (bytes/s)
system.mem_ctrls.bw_total::writebacks        67838387                       # Total bandwidth to/from this memory (bytes/s)
system.mem_ctrls.bw_total::cpu0.data         79378836                       # Total bandwidth to/from this memory (bytes/s)
system.mem_ctrls.bw_total::total            147217223                       # Total bandwidth to/from this memory (bytes/s)
system.mem_ctrls.readReqs                       18936                       # Number of read requests accepted
system.mem_ctrls.writeReqs                      16183                       # Number of write requests accepted
system.mem_ctrls.readBursts                     18936                       # Number of DRAM read bursts, including those serviced by the write queue
system.mem_ctrls.writeBursts                    16183                       # Number of DRAM write bursts, including those merged in the write queue
system.mem_ctrls.bytesReadDRAM                1211776                       # Total number of bytes read from DRAM
system.mem_ctrls.bytesReadWrQ                     128                       # Total number of bytes read from write queue
system.mem_ctrls.bytesWritten                 1035712                       # Total number of bytes written to DRAM
system.mem_ctrls.bytesReadSys                 1211904                       # Total read bytes from the system interface side
system.mem_ctrls.bytesWrittenSys              1035712                       # Total written bytes from the system interface side
system.mem_ctrls.servicedByWrQ                      2                       # Number of DRAM read bursts serviced by the write queue
system.mem_ctrls.mergedWrBursts                     0                       # Number of DRAM write bursts merged with an existing one
system.mem_ctrls.neitherReadNorWriteReqs            0                       # Number of requests that are neither read nor write
system.mem_ctrls.perBankRdBursts::0              1240                       # Per bank write bursts
system.mem_ctrls.perBankRdBursts::1              1172                       # Per bank write bursts
system.mem_ctrls.perBankRdBursts::2              1120                       # Per bank write bursts
system.mem_ctrls.perBankRdBursts::3              1095                       # Per bank write bursts
system.mem_ctrls.perBankRdBursts::4              1063                       # Per bank write bursts
system.mem_ctrls.perBankRdBursts::5              1100                       # Per bank write bursts
system.mem_ctrls.perBankRdBursts::6              1107                       # Per bank write bursts
system.mem_ctrls.perBankRdBursts::7              1188                       # Per bank write bursts
system.mem_ctrls.perBankRdBursts::8              1239                       # Per bank write bursts
system.mem_ctrls.perBankRdBursts::9              1209                       # Per bank write bursts
system.mem_ctrls.perBankRdBursts::10             1226                       # Per bank write bursts
system.mem_ctrls.perBankRdBursts::11             1212                       # Per bank write bursts
system.mem_ctrls.perBankRdBursts::12             1254                       # Per bank write bursts
system.mem_ctrls.perBankRdBursts::13             1299                       # Per bank write bursts
system.mem_ctrls.perBankRdBursts::14             1222                       # Per bank write bursts
system.mem_ctrls.perBankRdBursts::15             1188                       # Per bank write bursts
system.mem_ctrls.perBankWrBursts::0              1083                       # Per bank write bursts
system.mem_ctrls.perBankWrBursts::1               995                       # Per bank write bursts
system.mem_ctrls.perBankWrBursts::2               955                       # Per bank write bursts
system.mem_ctrls.perBankWrBursts::3               954                       # Per bank write bursts
system.mem_ctrls.perBankWrBursts::4               926                       # Per bank write bursts
system.mem_ctrls.perBankWrBursts::5               938                       # Per bank write bursts
system.mem_ctrls.perBankWrBursts::6               961                       # Per bank write bursts
system.mem_ctrls.perBankWrBursts::7              1035                       # Per bank write bursts
system.mem_ctrls.perBankWrBursts::8              1036                       # Per bank write bursts
system.mem_ctrls.perBankWrBursts::9              1033                       # Per bank write bursts
system.mem_ctrls.perBankWrBursts::10             1033                       # Per bank write bursts
system.mem_ctrls.perBankWrBursts::11             1039                       # Per bank write bursts
system.mem_ctrls.perBankWrBursts::12             1065                       # Per bank write bursts
system.mem_ctrls.perBankWrBursts::13             1102                       # Per bank write bursts
system.mem_ctrls.perBankWrBursts::14             1025                       # Per bank write bursts
system.mem_ctrls.perBankWrBursts::15             1003                       # Per bank write bursts
system.mem_ctrls.numRdRetry                         0                       # Number of times read queue was full causing retry
system.mem_ctrls.numWrRetry                         0                       # Number of times write queue was full causing retry
system.mem_ctrls.totGap                   15266294000                       # Total gap between requests
system.mem_ctrls.readPktSize::0                     0                       # Read request sizes (log2)
system.mem_ctrls.readPktSize::1                     0                       # Read request sizes (log2)
system.mem_ctrls.readPktSize::2                     0                       # Read request sizes (log2)
system.mem_ctrls.readPktSize::3                     0                       # Read request sizes (log2)
system.mem_ctrls.readPktSize::4                     0                       # Read request sizes (log2)
system.mem_ctrls.readPktSize::5                     0                       # Read request sizes (log2)
system.mem_ctrls.readPktSize::6                 18936                       # Read request sizes (log2)
system.mem_ctrls.writePktSize::0                    0                       # Write request sizes (log2)
system.mem_ctrls.writePktSize::1                    0                       # Write request sizes (log2)
system.mem_ctrls.writePktSize::2                    0                       # Write request sizes (log2)
system.mem_ctrls.writePktSize::3                    0                       # Write request sizes (log2)
system.mem_ctrls.writePktSize::4                    0                       # Write request sizes (log2)
system.mem_ctrls.writePktSize::5                    0                       # Write request sizes (log2)
system.mem_ctrls.writePktSize::6                16183                       # Write request sizes (log2)
system.mem_ctrls.rdQLenPdf::0                   17338                       # What read queue length does an incoming req see
system.mem_ctrls.rdQLenPdf::1                    1569                       # What read queue length does an incoming req see
system.mem_ctrls.rdQLenPdf::2                      27                       # What read queue length does an incoming req see
system.mem_ctrls.rdQLenPdf::3                       0                       # What read queue length does an incoming req see
system.mem_ctrls.rdQLenPdf::4                       0                       # What read queue length does an incoming req see
system.mem_ctrls.rdQLenPdf::5                       0                       # What read queue length does an incoming req see
system.mem_ctrls.rdQLenPdf::6                       0                       # What read queue length does an incoming req see
system.mem_ctrls.rdQLenPdf::7                       0                       # What read queue length does an incoming req see
system.mem_ctrls.rdQLenPdf::8                       0                       # What read queue length does an incoming req see
system.mem_ctrls.rdQLenPdf::9                       0                       # What read queue length does an incoming req see
system.mem_ctrls.rdQLenPdf::10                      0                       # What read queue length does an incoming req see
system.mem_ctrls.rdQLenPdf::11                      0                       # What read queue length does an incoming req see
system.mem_ctrls.rdQLenPdf::12                      0                       # What read queue length does an incoming req see
system.mem_ctrls.rdQLenPdf::13                      0                       # What read queue length does an incoming req see
system.mem_ctrls.rdQLenPdf::14                      0                       # What read queue length does an incoming req see
system.mem_ctrls.rdQLenPdf::15                      0                       # What read queue length does an incoming req see
system.mem_ctrls.rdQLenPdf::16                      0                       # What read queue length does an incoming req see
system.mem_ctrls.rdQLenPdf::17                      0                       # What read queue length does an incoming req see
system.mem_ctrls.rdQLenPdf::18                      0                       # What read queue length does an incoming req see
system.mem_ctrls.rdQLenPdf::19                      0                       # What read queue length does an incoming req see
system.mem_ctrls.rdQLenPdf::20                      0                       # What read queue length does an incoming req see
system.mem_ctrls.rdQLenPdf::21                      0                       # What read queue length does an incoming req see
system.mem_ctrls.rdQLenPdf::22                      0                       # What read queue length does an incoming req see
system.mem_ctrls.rdQLenPdf::23                      0                       # What read queue length does an incoming req see
system.mem_ctrls.rdQLenPdf::24                      0                       # What read queue length does an incoming req see
system.mem_ctrls.rdQLenPdf::25                      0                       # What read queue length does an incoming req see
system.mem_ctrls.rdQLenPdf::26                      0                       # What read queue length does an incoming req see
system.mem_ctrls.rdQLenPdf::27                      0                       # What read queue length does an incoming req see
system.mem_ctrls.rdQLenPdf::28                      0                       # What read queue length does an incoming req see
system.mem_ctrls.rdQLenPdf::29                      0                       # What read queue length does an incoming req see
system.mem_ctrls.rdQLenPdf::30                      0                       # What read queue length does an incoming req see
system.mem_ctrls.rdQLenPdf::31                      0                       # What read queue length does an incoming req see
system.mem_ctrls.wrQLenPdf::0                       0                       # What write queue length does an incoming req see
system.mem_ctrls.wrQLenPdf::1                       0                       # What write queue length does an incoming req see
system.mem_ctrls.wrQLenPdf::2                       0                       # What write queue length does an incoming req see
system.mem_ctrls.wrQLenPdf::3                       0                       # What write queue length does an incoming req see
system.mem_ctrls.wrQLenPdf::4                       0                       # What write queue length does an incoming req see
system.mem_ctrls.wrQLenPdf::5                       0                       # What write queue length does an incoming req see
system.mem_ctrls.wrQLenPdf::6                       0                       # What write queue length does an incoming req see
system.mem_ctrls.wrQLenPdf::7                       0                       # What write queue length does an incoming req see
system.mem_ctrls.wrQLenPdf::8                       0                       # What write queue length does an incoming req see
system.mem_ctrls.wrQLenPdf::9                       0                       # What write queue length does an incoming req see
system.mem_ctrls.wrQLenPdf::10                      0                       # What write queue length does an incoming req see
system.mem_ctrls.wrQLenPdf::11                      0                       # What write queue length does an incoming req see
system.mem_ctrls.wrQLenPdf::12                      0                       # What write queue length does an incoming req see
system.mem_ctrls.wrQLenPdf::13                      0                       # What write queue length does an incoming req see
system.mem_ctrls.wrQLenPdf::14                      0                       # What write queue length does an incoming req see
system.mem_ctrls.wrQLenPdf::15                    527                       # What write queue length does an incoming req see
system.mem_ctrls.wrQLenPdf::16                    555                       # What write queue length does an incoming req see
system.mem_ctrls.wrQLenPdf::17                    916                       # What write queue length does an incoming req see
system.mem_ctrls.wrQLenPdf::18                    939                       # What write queue length does an incoming req see
system.mem_ctrls.wrQLenPdf::19                    942                       # What write queue length does an incoming req see
system.mem_ctrls.wrQLenPdf::20                    941                       # What write queue length does an incoming req see
system.mem_ctrls.wrQLenPdf::21                    941                       # What write queue length does an incoming req see
system.mem_ctrls.wrQLenPdf::22                    942                       # What write queue length does an incoming req see
system.mem_ctrls.wrQLenPdf::23                    943                       # What write queue length does an incoming req see
system.mem_ctrls.wrQLenPdf::24                    943                       # What write queue length does an incoming req see
system.mem_ctrls.wrQLenPdf::25                    944                       # What write queue length does an incoming req see
system.mem_ctrls.wrQLenPdf::26                    947                       # What write queue length does an incoming req see
system.mem_ctrls.wrQLenPdf::27                    944                       # What write queue length does an incoming req see
system.mem_ctrls.wrQLenPdf::28                    947                       # What write queue length does an incoming req see
system.mem_ctrls.wrQLenPdf::29                    944                       # What write queue length does an incoming req see
system.mem_ctrls.wrQLenPdf::30                    980                       # What write queue length does an incoming req see
system.mem_ctrls.wrQLenPdf::31                    945                       # What write queue length does an incoming req see
system.mem_ctrls.wrQLenPdf::32                    943                       # What write queue length does an incoming req see
system.mem_ctrls.wrQLenPdf::33                      0                       # What write queue length does an incoming req see
system.mem_ctrls.wrQLenPdf::34                      0                       # What write queue length does an incoming req see
system.mem_ctrls.wrQLenPdf::35                      0                       # What write queue length does an incoming req see
system.mem_ctrls.wrQLenPdf::36                      0                       # What write queue length does an incoming req see
system.mem_ctrls.wrQLenPdf::37                      0                       # What write queue length does an incoming req see
system.mem_ctrls.wrQLenPdf::38                      0                       # What write queue length does an incoming req see
system.mem_ctrls.wrQLenPdf::39                      0                       # What write queue length does an incoming req see
system.mem_ctrls.wrQLenPdf::40                      0                       # What write queue length does an incoming req see
system.mem_ctrls.wrQLenPdf::41                      0                       # What write queue length does an incoming req see
system.mem_ctrls.wrQLenPdf::42                      0                       # What write queue length does an incoming req see
system.mem_ctrls.wrQLenPdf::43                      0                       # What write queue length does an incoming req see
system.mem_ctrls.wrQLenPdf::44                      0                       # What write queue length does an incoming req see
system.mem_ctrls.wrQLenPdf::45                      0                       # What write queue length does an incoming req see
system.mem_ctrls.wrQLenPdf::46                      0                       # What write queue length does an incoming req see
system.mem_ctrls.wrQLenPdf::47                      0                       # What write queue length does an incoming req see
system.mem_ctrls.wrQLenPdf::48                      0                       # What write queue length does an incoming req see
system.mem_ctrls.wrQLenPdf::49                      0                       # What write queue length does an incoming req see
system.mem_ctrls.wrQLenPdf::50                      0                       # What write queue length does an incoming req see
system.mem_ctrls.wrQLenPdf::51                      0                       # What write queue length does an incoming req see
system.mem_ctrls.wrQLenPdf::52                      0                       # What write queue length does an incoming req see
system.mem_ctrls.wrQLenPdf::53                      0                       # What write queue length does an incoming req see
system.mem_ctrls.wrQLenPdf::54                      0                       # What write queue length does an incoming req see
system.mem_ctrls.wrQLenPdf::55                      0                       # What write queue length does an incoming req see
system.mem_ctrls.wrQLenPdf::56                      0                       # What write queue length does an incoming req see
system.mem_ctrls.wrQLenPdf::57                      0                       # What write queue length does an incoming req see
system.mem_ctrls.wrQLenPdf::58                      0                       # What write queue length does an incoming req see
system.mem_ctrls.wrQLenPdf::59                      0                       # What write queue length does an incoming req see
system.mem_ctrls.wrQLenPdf::60                      0                       # What write queue length does an incoming req see
system.mem_ctrls.wrQLenPdf::61                      0                       # What write queue length does an incoming req see
system.mem_ctrls.wrQLenPdf::62                      0                       # What write queue length does an incoming req see
system.mem_ctrls.wrQLenPdf::63                      0                       # What write queue length does an incoming req see
system.mem_ctrls.bytesPerActivate::samples        24837                       # Bytes accessed per row activation
system.mem_ctrls.bytesPerActivate::mean     90.502396                       # Bytes accessed per row activation
system.mem_ctrls.bytesPerActivate::gmean    81.184553                       # Bytes accessed per row activation
system.mem_ctrls.bytesPerActivate::stdev    53.609009                       # Bytes accessed per row activation
system.mem_ctrls.bytesPerActivate::64-127        18078     72.79%     72.79% # Bytes accessed per row activation
system.mem_ctrls.bytesPerActivate::128-191         4642     18.69%     91.48% # Bytes accessed per row activation
system.mem_ctrls.bytesPerActivate::192-255         1202      4.84%     96.32% # Bytes accessed per row activation
system.mem_ctrls.bytesPerActivate::256-319          593      2.39%     98.70% # Bytes accessed per row activation
system.mem_ctrls.bytesPerActivate::320-383          218      0.88%     99.58% # Bytes accessed per row activation
system.mem_ctrls.bytesPerActivate::384-447           59      0.24%     99.82% # Bytes accessed per row activation
system.mem_ctrls.bytesPerActivate::448-511           29      0.12%     99.94% # Bytes accessed per row activation
system.mem_ctrls.bytesPerActivate::512-575           10      0.04%     99.98% # Bytes accessed per row activation
system.mem_ctrls.bytesPerActivate::576-639            5      0.02%    100.00% # Bytes accessed per row activation
system.mem_ctrls.bytesPerActivate::640-703            1      0.00%    100.00% # Bytes accessed per row activation
system.mem_ctrls.bytesPerActivate::total        24837                       # Bytes accessed per row activation
system.mem_ctrls.rdPerTurnAround::samples          941                       # Reads before turning the bus around for writes
system.mem_ctrls.rdPerTurnAround::mean      20.110521                       # Reads before turning the bus around for writes
system.mem_ctrls.rdPerTurnAround::gmean     19.996422                       # Reads before turning the bus around for writes
system.mem_ctrls.rdPerTurnAround::stdev      2.161192                       # Reads before turning the bus around for writes
system.mem_ctrls.rdPerTurnAround::15                1      0.11%      0.11% # Reads before turning the bus around for writes
system.mem_ctrls.rdPerTurnAround::16               27      2.87%      2.98% # Reads before turning the bus around for writes
system.mem_ctrls.rdPerTurnAround::17               74      7.86%     10.84% # Reads before turning the bus around for writes
system.mem_ctrls.rdPerTurnAround::18              121     12.86%     23.70% # Reads before turning the bus around for writes
system.mem_ctrls.rdPerTurnAround::19              161     17.11%     40.81% # Reads before turning the bus around for writes
system.mem_ctrls.rdPerTurnAround::20              188     19.98%     60.79% # Reads before turning the bus around for writes
system.mem_ctrls.rdPerTurnAround::21              140     14.88%     75.66% # Reads before turning the bus around for writes
system.mem_ctrls.rdPerTurnAround::22               98     10.41%     86.08% # Reads before turning the bus around for writes
system.mem_ctrls.rdPerTurnAround::23               65      6.91%     92.99% # Reads before turning the bus around for writes
system.mem_ctrls.rdPerTurnAround::24               34      3.61%     96.60% # Reads before turning the bus around for writes
system.mem_ctrls.rdPerTurnAround::25               21      2.23%     98.83% # Reads before turning the bus around for writes
system.mem_ctrls.rdPerTurnAround::26                7      0.74%     99.57% # Reads before turning the bus around for writes
system.mem_ctrls.rdPerTurnAround::27                4      0.43%    100.00% # Reads before turning the bus around for writes
system.mem_ctrls.rdPerTurnAround::total           941                       # Reads before turning the bus around for writes
system.mem_ctrls.wrPerTurnAround::samples          941                       # Writes before turning the bus around for reads
system.mem_ctrls.wrPerTurnAround::mean      17.197662                       # Writes before turning the bus around for reads
system.mem_ctrls.wrPerTurnAround::gmean     17.167096                       # Writes before turning the bus around for reads
system.mem_ctrls.wrPerTurnAround::stdev      1.021698                       # Writes before turning the bus around for reads
system.mem_ctrls.wrPerTurnAround::16              378     40.17%     40.17% # Writes before turning the bus around for reads
system.mem_ctrls.wrPerTurnAround::17               36      3.83%     44.00% # Writes before turning the bus around for reads
system.mem_ctrls.wrPerTurnAround::18              491     52.18%     96.17% # Writes before turning the bus around for reads
system.mem_ctrls.wrPerTurnAround::19               35      3.72%     99.89% # Writes before turning the bus around for reads
system.mem_ctrls.wrPerTurnAround::20                1      0.11%    100.00% # Writes before turning the bus around for reads
system.mem_ctrls.wrPerTurnAround::total           941                       # Writes before turning the bus around for reads
system.mem_ctrls.totQLat                    529804750                       # Total ticks spent queuing
system.mem_ctrls.totMemAccLat               884817250                       # Total ticks spent from burst creation until serviced by the DRAM
system.mem_ctrls.totBusLat                   94670000                       # Total ticks spent in databus transfers
system.mem_ctrls.avgQLat                     27981.66                       # Average queueing delay per DRAM burst
system.mem_ctrls.avgBusLat                    5000.00                       # Average bus latency per DRAM burst
system.mem_ctrls.avgMemAccLat                46731.66                       # Average memory access latency per DRAM burst
system.mem_ctrls.avgRdBW                        79.37                       # Average DRAM read bandwidth in MiByte/s
system.mem_ctrls.avgWrBW                        67.84                       # Average achieved write bandwidth in MiByte/s
system.mem_ctrls.avgRdBWSys                     79.38                       # Average system read bandwidth in MiByte/s
system.mem_ctrls.avgWrBWSys                     67.84                       # Average system write bandwidth in MiByte/s
system.mem_ctrls.peakBW                      12800.00                       # Theoretical peak bandwidth in MiByte/s
system.mem_ctrls.busUtil                         1.15                       # Data bus utilization in percentage
system.mem_ctrls.busUtilRead                     0.62                       # Data bus utilization in percentage for reads
system.mem_ctrls.busUtilWrite                    0.53                       # Data bus utilization in percentage for writes
system.mem_ctrls.avgRdQLen                       1.11                       # Average read queue length when enqueuing
system.mem_ctrls.avgWrQLen                      24.97                       # Average write queue length when enqueuing
system.mem_ctrls.readRowHits                     6763                       # Number of row buffer hits during reads
system.mem_ctrls.writeRowHits                    3519                       # Number of row buffer hits during writes
system.mem_ctrls.readRowHitRate                 35.72                       # Row buffer hit rate for reads
system.mem_ctrls.writeRowHitRate                21.75                       # Row buffer hit rate for writes
system.mem_ctrls.avgGap                     434701.84                       # Average gap between requests
system.mem_ctrls.pageHitRate                    29.28                       # Row buffer hit rate, read and write combined
system.mem_ctrls_0.actEnergy                 86329740                       # Energy for activate commands per rank (pJ)
system.mem_ctrls_0.preEnergy                 45885345                       # Energy for precharge commands per rank (pJ)
system.mem_ctrls_0.readEnergy                64866900                       # Energy for read commands per rank (pJ)
system.mem_ctrls_0.writeEnergy               40961340                       # Energy for write commands per rank (pJ)
system.mem_ctrls_0.refreshEnergy         1216987200.000000                       # Energy for refresh commands per rank (pJ)
system.mem_ctrls_0.actBackEnergy            980247240                       # Energy for active background per rank (pJ)
system.mem_ctrls_0.preBackEnergy             31349760                       # Energy for precharge background per rank (pJ)
system.mem_ctrls_0.actPowerDownEnergy      4470107580                       # Energy for active power-down per rank (pJ)
system.mem_ctrls_0.prePowerDownEnergy      1193861280                       # Energy for precharge power-down per rank (pJ)
system.mem_ctrls_0.selfRefreshEnergy         50782920                       # Energy for self refresh per rank (pJ)
system.mem_ctrls_0.totalEnergy             8181379305                       # Total energy per rank (pJ)
system.mem_ctrls_0.averagePower            535.874428                       # Core power per rank (mW)
system.mem_ctrls_0.totalIdleTime          13033021875                       # Total Idle time Per DRAM Rank
system.mem_ctrls_0.memoryStateTime::IDLE     23115750                       # Time in different power states
system.mem_ctrls_0.memoryStateTime::REF     515070000                       # Time in different power states
system.mem_ctrls_0.memoryStateTime::SREF    124153000                       # Time in different power states
system.mem_ctrls_0.memoryStateTime::PRE_PDN   3108801250                       # Time in different power states
system.mem_ctrls_0.memoryStateTime::ACT    1693327500                       # Time in different power states
system.mem_ctrls_0.memoryStateTime::ACT_PDN   9802876625                       # Time in different power states
system.mem_ctrls_1.actEnergy                 90992160                       # Energy for activate commands per rank (pJ)
system.mem_ctrls_1.preEnergy                 48371070                       # Energy for precharge commands per rank (pJ)
system.mem_ctrls_1.readEnergy                70321860                       # Energy for read commands per rank (pJ)
system.mem_ctrls_1.writeEnergy               43513920                       # Energy for write commands per rank (pJ)
system.mem_ctrls_1.refreshEnergy         1218216480.000000                       # Energy for refresh commands per rank (pJ)
system.mem_ctrls_1.actBackEnergy            998647980                       # Energy for active background per rank (pJ)
system.mem_ctrls_1.preBackEnergy             31946880                       # Energy for precharge background per rank (pJ)
system.mem_ctrls_1.actPowerDownEnergy      4608814230                       # Energy for active power-down per rank (pJ)
system.mem_ctrls_1.prePowerDownEnergy      1074924480                       # Energy for precharge power-down per rank (pJ)
system.mem_ctrls_1.selfRefreshEnergy         39848160                       # Energy for self refresh per rank (pJ)
system.mem_ctrls_1.totalEnergy             8225868150                       # Total energy per rank (pJ)
system.mem_ctrls_1.averagePower            538.788415                       # Core power per rank (mW)
system.mem_ctrls_1.totalIdleTime          12991964625                       # Total Idle time Per DRAM Rank
system.mem_ctrls_1.memoryStateTime::IDLE     24721750                       # Time in different power states
system.mem_ctrls_1.memoryStateTime::REF     515542000                       # Time in different power states
system.mem_ctrls_1.memoryStateTime::SREF     87195250                       # Time in different power states
system.mem_ctrls_1.memoryStateTime::PRE_PDN   2799395000                       # Time in different power states
system.mem_ctrls_1.memoryStateTime::ACT    1733610750                       # Time in different power states
system.mem_ctrls_1.memoryStateTime::ACT_PDN  10106879375                       # Time in different power states
system.pwrStateResidencyTicks::UNDEFINED  15267344125                       # Cumulative time (in ticks) in various power states
system.cpu0.branchPred.lookups               13240331                       # Number of BP lookups
system.cpu0.branchPred.condPredicted         13240331                       # Number of conditional branches predicted
system.cpu0.branchPred.condIncorrect          1386792                       # Number of conditional branches incorrect
system.cpu0.branchPred.BTBLookups            11150938                       # Number of BTB lookups
system.cpu0.branchPred.BTBHits                      0                       # Number of BTB hits
system.cpu0.branchPred.BTBCorrect                   0                       # Number of correct BTB predictions (this stat may not work properly.
system.cpu0.branchPred.BTBHitPct             0.000000                       # BTB Hit Percentage
system.cpu0.branchPred.usedRAS                1081629                       # Number of times the RAS was used to get a target.
system.cpu0.branchPred.RASInCorrect            192911                       # Number of incorrect RAS predictions.
system.cpu0.branchPred.indirectLookups       11150938                       # Number of indirect predictor lookups.
system.cpu0.branchPred.indirectHits           2665934                       # Number of indirect target hits.
system.cpu0.branchPred.indirectMisses         8485004                       # Number of indirect misses.
system.cpu0.branchPredindirectMispredicted       917074                       # Number of mispredicted indirect branches.
system.cpu_voltage_domain.voltage                   1                       # Voltage in Volts
system.cpu_clk_domain.clock                       500                       # Clock period in ticks
system.cpu0.dtb.walker.pwrStateResidencyTicks::UNDEFINED  15267344125                       # Cumulative time (in ticks) in various power states
system.cpu0.dtb.rdAccesses                    6943890                       # TLB accesses on read requests
system.cpu0.dtb.wrAccesses                    2390872                       # TLB accesses on write requests
system.cpu0.dtb.rdMisses                        87748                       # TLB misses on read requests
system.cpu0.dtb.wrMisses                        20193                       # TLB misses on write requests
system.cpu0.apic_clk_domain.clock                8000                       # Clock period in ticks
system.cpu0.interrupts.pwrStateResidencyTicks::UNDEFINED  15267344125                       # Cumulative time (in ticks) in various power states
system.cpu0.itb.walker.pwrStateResidencyTicks::UNDEFINED  15267344125                       # Cumulative time (in ticks) in various power states
system.cpu0.itb.rdAccesses                          0                       # TLB accesses on read requests
system.cpu0.itb.wrAccesses                    6574275                       # TLB accesses on write requests
system.cpu0.itb.rdMisses                            0                       # TLB misses on read requests
system.cpu0.itb.wrMisses                         2828                       # TLB misses on write requests
system.cpu0.workload.numSyscalls                   20                       # Number of system calls
system.cpu0.pwrStateResidencyTicks::ON    15267344125                       # Cumulative time (in ticks) in various power states
system.cpu0.numCycles                        30534689                       # number of cpu cycles simulated
system.cpu0.numWorkItemsStarted                     0                       # number of work items this cpu started
system.cpu0.numWorkItemsCompleted                   0                       # number of work items this cpu completed
system.cpu0.fetch.icacheStallCycles           7418749                       # Number of cycles fetch is stalled on an Icache miss
system.cpu0.fetch.Insts                      56577170                       # Number of instructions fetch has processed
system.cpu0.fetch.Branches                   13240331                       # Number of branches that fetch encountered
system.cpu0.fetch.predictedBranches           3747563                       # Number of branches that fetch has predicted taken
system.cpu0.fetch.Cycles                     21709778                       # Number of cycles fetch has run and was not squashing or blocked
system.cpu0.fetch.SquashCycles                2775966                       # Number of cycles fetch has spent squashing
system.cpu0.fetch.TlbCycles                        22                       # Number of cycles fetch has spent waiting for tlb
system.cpu0.fetch.MiscStallCycles                1010                       # Number of cycles fetch has spent waiting on interrupts, or bad addresses, or out of MSHRs
system.cpu0.fetch.PendingTrapStallCycles        15977                       # Number of stall cycles due to pending traps
system.cpu0.fetch.CacheLines                  6571447                       # Number of cache lines fetched
system.cpu0.fetch.IcacheSquashes               321038                       # Number of outstanding Icache misses that were squashed
system.cpu0.fetch.rateDist::samples          30533519                       # Number of instructions fetched each cycle (Total)
system.cpu0.fetch.rateDist::mean             4.029031                       # Number of instructions fetched each cycle (Total)
system.cpu0.fetch.rateDist::stdev            3.671594                       # Number of instructions fetched each cycle (Total)
system.cpu0.fetch.rateDist::underflows              0      0.00%      0.00% # Number of instructions fetched each cycle (Total)
system.cpu0.fetch.rateDist::0                12146058     39.78%     39.78% # Number of instructions fetched each cycle (Total)
system.cpu0.fetch.rateDist::1                  522649      1.71%     41.49% # Number of instructions fetched each cycle (Total)
system.cpu0.fetch.rateDist::2                  889811      2.91%     44.41% # Number of instructions fetched each cycle (Total)
system.cpu0.fetch.rateDist::3                 1340092      4.39%     48.79% # Number of instructions fetched each cycle (Total)
system.cpu0.fetch.rateDist::4                  613714      2.01%     50.80% # Number of instructions fetched each cycle (Total)
system.cpu0.fetch.rateDist::5                 1142321      3.74%     54.55% # Number of instructions fetched each cycle (Total)
system.cpu0.fetch.rateDist::6                  993992      3.26%     57.80% # Number of instructions fetched each cycle (Total)
system.cpu0.fetch.rateDist::7                  511517      1.68%     59.48% # Number of instructions fetched each cycle (Total)
system.cpu0.fetch.rateDist::8                12373365     40.52%    100.00% # Number of instructions fetched each cycle (Total)
system.cpu0.fetch.rateDist::overflows               0      0.00%    100.00% # Number of instructions fetched each cycle (Total)
system.cpu0.fetch.rateDist::min_value               0                       # Number of instructions fetched each cycle (Total)
system.cpu0.fetch.rateDist::max_value               8                       # Number of instructions fetched each cycle (Total)
system.cpu0.fetch.rateDist::total            30533519                       # Number of instructions fetched each cycle (Total)
system.cpu0.fetch.branchRate                 0.433616                       # Number of branch fetches per cycle
system.cpu0.fetch.rate                       1.852882                       # Number of inst fetches per cycle
system.cpu0.decode.IdleCycles                 5613845                       # Number of cycles decode is idle
system.cpu0.decode.BlockedCycles              8330364                       # Number of cycles decode is blocked
system.cpu0.decode.RunCycles                 13777427                       # Number of cycles decode is running
system.cpu0.decode.UnblockCycles              1423900                       # Number of cycles decode is unblocking
system.cpu0.decode.SquashCycles               1387983                       # Number of cycles decode is squashing
system.cpu0.decode.DecodedInsts             110238459                       # Number of instructions handled by decode
system.cpu0.rename.SquashCycles               1387983                       # Number of cycles rename is squashing
system.cpu0.rename.IdleCycles                 6679836                       # Number of cycles rename is idle
system.cpu0.rename.BlockCycles                6957094                       # Number of cycles rename is blocking
system.cpu0.rename.serializeStallCycles        258328                       # count of cycles rename stalled for serializing inst
system.cpu0.rename.RunCycles                 13922514                       # Number of cycles rename is running
system.cpu0.rename.UnblockCycles              1327764                       # Number of cycles rename is unblocking
system.cpu0.rename.RenamedInsts             103048166                       # Number of instructions processed by rename
system.cpu0.rename.ROBFullEvents                33733                       # Number of times rename has blocked due to ROB full
system.cpu0.rename.IQFullEvents                693813                       # Number of times rename has blocked due to IQ full
system.cpu0.rename.LQFullEvents                   670                       # Number of times rename has blocked due to LQ full
system.cpu0.rename.SQFullEvents                405596                       # Number of times rename has blocked due to SQ full
system.cpu0.rename.RenamedOperands          115876847                       # Number of destination operands rename has renamed
system.cpu0.rename.RenameLookups            255540915                       # Number of register rename lookups that rename has made
system.cpu0.rename.int_rename_lookups       140490649                       # Number of integer rename lookups
system.cpu0.rename.fp_rename_lookups         19126216                       # Number of floating rename lookups
system.cpu0.rename.CommittedMaps             48082093                       # Number of HB maps that are committed
system.cpu0.rename.UndoneMaps                67794719                       # Number of HB maps that are undone due to squashing
system.cpu0.rename.serializingInsts             30566                       # count of serializing insts renamed
system.cpu0.rename.tempSerializingInsts         33165                       # count of temporary serializing insts renamed
system.cpu0.rename.skidInsts                  3187037                       # count of insts added to the skid buffer
system.cpu0.memDep0.insertedLoads             9493263                       # Number of loads inserted to the mem dependence unit.
system.cpu0.memDep0.insertedStores            3326299                       # Number of stores inserted to the mem dependence unit.
system.cpu0.memDep0.conflictingLoads           163148                       # Number of conflicting loads.
system.cpu0.memDep0.conflictingStores          170376                       # Number of conflicting stores.
system.cpu0.iq.iqInstsAdded                  89291779                       # Number of instructions added to the IQ (excludes non-spec)
system.cpu0.iq.iqNonSpecInstsAdded             218094                       # Number of non-speculative instructions added to the IQ
system.cpu0.iq.iqInstsIssued                 70898912                       # Number of instructions issued
system.cpu0.iq.iqSquashedInstsIssued           675300                       # Number of squashed instructions issued
system.cpu0.iq.iqSquashedInstsExamined       47999831                       # Number of squashed instructions iterated over during squash; mainly for profiling
system.cpu0.iq.iqSquashedOperandsExamined     69700762                       # Number of squashed operands that are examined and possibly removed from graph
system.cpu0.iq.iqSquashedNonSpecRemoved        217954                       # Number of squashed non-spec instructions that were removed
system.cpu0.iq.issued_per_cycle::samples     30533519                       # Number of insts issued each cycle
system.cpu0.iq.issued_per_cycle::mean        2.322003                       # Number of insts issued each cycle
system.cpu0.iq.issued_per_cycle::stdev       2.595419                       # Number of insts issued each cycle
system.cpu0.iq.issued_per_cycle::underflows            0      0.00%      0.00% # Number of insts issued each cycle
system.cpu0.iq.issued_per_cycle::0           13391461     43.86%     43.86% # Number of insts issued each cycle
system.cpu0.iq.issued_per_cycle::1            2194947      7.19%     51.05% # Number of insts issued each cycle
system.cpu0.iq.issued_per_cycle::2            2713661      8.89%     59.93% # Number of insts issued each cycle
system.cpu0.iq.issued_per_cycle::3            2310362      7.57%     67.50% # Number of insts issued each cycle
system.cpu0.iq.issued_per_cycle::4            2356287      7.72%     75.22% # Number of insts issued each cycle
system.cpu0.iq.issued_per_cycle::5            2236803      7.33%     82.54% # Number of insts issued each cycle
system.cpu0.iq.issued_per_cycle::6            2638881      8.64%     91.19% # Number of insts issued each cycle
system.cpu0.iq.issued_per_cycle::7            1625828      5.32%     96.51% # Number of insts issued each cycle
system.cpu0.iq.issued_per_cycle::8            1065289      3.49%    100.00% # Number of insts issued each cycle
system.cpu0.iq.issued_per_cycle::overflows            0      0.00%    100.00% # Number of insts issued each cycle
system.cpu0.iq.issued_per_cycle::min_value            0                       # Number of insts issued each cycle
system.cpu0.iq.issued_per_cycle::max_value            8                       # Number of insts issued each cycle
system.cpu0.iq.issued_per_cycle::total       30533519                       # Number of insts issued each cycle
system.cpu0.iq.fu_full::No_OpClass                  0      0.00%      0.00% # attempts to use FU when none available
system.cpu0.iq.fu_full::IntAlu                1434575     92.70%     92.70% # attempts to use FU when none available
system.cpu0.iq.fu_full::IntMult                     0      0.00%     92.70% # attempts to use FU when none available
system.cpu0.iq.fu_full::IntDiv                      0      0.00%     92.70% # attempts to use FU when none available
system.cpu0.iq.fu_full::FloatAdd                81285      5.25%     97.95% # attempts to use FU when none available
system.cpu0.iq.fu_full::FloatCmp                    0      0.00%     97.95% # attempts to use FU when none available
system.cpu0.iq.fu_full::FloatCvt                    0      0.00%     97.95% # attempts to use FU when none available
system.cpu0.iq.fu_full::FloatMult                   0      0.00%     97.95% # attempts to use FU when none available
system.cpu0.iq.fu_full::FloatMultAcc                0      0.00%     97.95% # attempts to use FU when none available
system.cpu0.iq.fu_full::FloatDiv                    0      0.00%     97.95% # attempts to use FU when none available
system.cpu0.iq.fu_full::FloatMisc                   0      0.00%     97.95% # attempts to use FU when none available
system.cpu0.iq.fu_full::FloatSqrt                   0      0.00%     97.95% # attempts to use FU when none available
system.cpu0.iq.fu_full::SimdAdd                     0      0.00%     97.95% # attempts to use FU when none available
system.cpu0.iq.fu_full::SimdAddAcc                  0      0.00%     97.95% # attempts to use FU when none available
system.cpu0.iq.fu_full::SimdAlu                     0      0.00%     97.95% # attempts to use FU when none available
system.cpu0.iq.fu_full::SimdCmp                     0      0.00%     97.95% # attempts to use FU when none available
system.cpu0.iq.fu_full::SimdCvt                     0      0.00%     97.95% # attempts to use FU when none available
system.cpu0.iq.fu_full::SimdMisc                    0      0.00%     97.95% # attempts to use FU when none available
system.cpu0.iq.fu_full::SimdMult                    0      0.00%     97.95% # attempts to use FU when none available
system.cpu0.iq.fu_full::SimdMultAcc                 0      0.00%     97.95% # attempts to use FU when none available
system.cpu0.iq.fu_full::SimdShift                   0      0.00%     97.95% # attempts to use FU when none available
system.cpu0.iq.fu_full::SimdShiftAcc                0      0.00%     97.95% # attempts to use FU when none available
system.cpu0.iq.fu_full::SimdSqrt                    0      0.00%     97.95% # attempts to use FU when none available
system.cpu0.iq.fu_full::SimdFloatAdd                0      0.00%     97.95% # attempts to use FU when none available
system.cpu0.iq.fu_full::SimdFloatAlu                0      0.00%     97.95% # attempts to use FU when none available
system.cpu0.iq.fu_full::SimdFloatCmp                0      0.00%     97.95% # attempts to use FU when none available
system.cpu0.iq.fu_full::SimdFloatCvt                0      0.00%     97.95% # attempts to use FU when none available
system.cpu0.iq.fu_full::SimdFloatDiv                0      0.00%     97.95% # attempts to use FU when none available
system.cpu0.iq.fu_full::SimdFloatMisc               0      0.00%     97.95% # attempts to use FU when none available
system.cpu0.iq.fu_full::SimdFloatMult               0      0.00%     97.95% # attempts to use FU when none available
system.cpu0.iq.fu_full::SimdFloatMultAcc            0      0.00%     97.95% # attempts to use FU when none available
system.cpu0.iq.fu_full::SimdFloatSqrt               0      0.00%     97.95% # attempts to use FU when none available
system.cpu0.iq.fu_full::MemRead                  5051      0.33%     98.27% # attempts to use FU when none available
system.cpu0.iq.fu_full::MemWrite                 2883      0.19%     98.46% # attempts to use FU when none available
system.cpu0.iq.fu_full::FloatMemRead            23404      1.51%     99.97% # attempts to use FU when none available
system.cpu0.iq.fu_full::FloatMemWrite             415      0.03%    100.00% # attempts to use FU when none available
system.cpu0.iq.fu_full::IprAccess                   0      0.00%    100.00% # attempts to use FU when none available
system.cpu0.iq.fu_full::InstPrefetch                0      0.00%    100.00% # attempts to use FU when none available
system.cpu0.iq.FU_type_0::No_OpClass          1836166      2.59%      2.59% # Type of FU issued
system.cpu0.iq.FU_type_0::IntAlu             53891053     76.01%     78.60% # Type of FU issued
system.cpu0.iq.FU_type_0::IntMult                3438      0.00%     78.61% # Type of FU issued
system.cpu0.iq.FU_type_0::IntDiv                76326      0.11%     78.71% # Type of FU issued
system.cpu0.iq.FU_type_0::FloatAdd            4916200      6.93%     85.65% # Type of FU issued
system.cpu0.iq.FU_type_0::FloatCmp                  0      0.00%     85.65% # Type of FU issued
system.cpu0.iq.FU_type_0::FloatCvt                  0      0.00%     85.65% # Type of FU issued
system.cpu0.iq.FU_type_0::FloatMult                 0      0.00%     85.65% # Type of FU issued
system.cpu0.iq.FU_type_0::FloatMultAcc              0      0.00%     85.65% # Type of FU issued
system.cpu0.iq.FU_type_0::FloatDiv                  0      0.00%     85.65% # Type of FU issued
system.cpu0.iq.FU_type_0::FloatMisc                 0      0.00%     85.65% # Type of FU issued
system.cpu0.iq.FU_type_0::FloatSqrt                 0      0.00%     85.65% # Type of FU issued
system.cpu0.iq.FU_type_0::SimdAdd                   0      0.00%     85.65% # Type of FU issued
system.cpu0.iq.FU_type_0::SimdAddAcc                0      0.00%     85.65% # Type of FU issued
system.cpu0.iq.FU_type_0::SimdAlu                   0      0.00%     85.65% # Type of FU issued
system.cpu0.iq.FU_type_0::SimdCmp                   0      0.00%     85.65% # Type of FU issued
system.cpu0.iq.FU_type_0::SimdCvt                   0      0.00%     85.65% # Type of FU issued
system.cpu0.iq.FU_type_0::SimdMisc                  0      0.00%     85.65% # Type of FU issued
system.cpu0.iq.FU_type_0::SimdMult                  0      0.00%     85.65% # Type of FU issued
system.cpu0.iq.FU_type_0::SimdMultAcc               0      0.00%     85.65% # Type of FU issued
system.cpu0.iq.FU_type_0::SimdShift                 0      0.00%     85.65% # Type of FU issued
system.cpu0.iq.FU_type_0::SimdShiftAcc              0      0.00%     85.65% # Type of FU issued
system.cpu0.iq.FU_type_0::SimdSqrt                  0      0.00%     85.65% # Type of FU issued
system.cpu0.iq.FU_type_0::SimdFloatAdd              0      0.00%     85.65% # Type of FU issued
system.cpu0.iq.FU_type_0::SimdFloatAlu              0      0.00%     85.65% # Type of FU issued
system.cpu0.iq.FU_type_0::SimdFloatCmp              0      0.00%     85.65% # Type of FU issued
system.cpu0.iq.FU_type_0::SimdFloatCvt              0      0.00%     85.65% # Type of FU issued
system.cpu0.iq.FU_type_0::SimdFloatDiv              0      0.00%     85.65% # Type of FU issued
system.cpu0.iq.FU_type_0::SimdFloatMisc             0      0.00%     85.65% # Type of FU issued
system.cpu0.iq.FU_type_0::SimdFloatMult             0      0.00%     85.65% # Type of FU issued
system.cpu0.iq.FU_type_0::SimdFloatMultAcc            0      0.00%     85.65% # Type of FU issued
system.cpu0.iq.FU_type_0::SimdFloatSqrt             0      0.00%     85.65% # Type of FU issued
system.cpu0.iq.FU_type_0::MemRead             5190467      7.32%     92.97% # Type of FU issued
system.cpu0.iq.FU_type_0::MemWrite            2599431      3.67%     96.63% # Type of FU issued
system.cpu0.iq.FU_type_0::FloatMemRead        2384523      3.36%    100.00% # Type of FU issued
system.cpu0.iq.FU_type_0::FloatMemWrite          1308      0.00%    100.00% # Type of FU issued
system.cpu0.iq.FU_type_0::IprAccess                 0      0.00%    100.00% # Type of FU issued
system.cpu0.iq.FU_type_0::InstPrefetch              0      0.00%    100.00% # Type of FU issued
system.cpu0.iq.FU_type_0::total              70898912                       # Type of FU issued
system.cpu0.iq.rate                          2.321914                       # Inst issue rate
system.cpu0.iq.fu_busy_cnt                    1547613                       # FU busy when requested
system.cpu0.iq.fu_busy_rate                  0.021828                       # FU busy rate (busy events/executed inst)
system.cpu0.iq.int_inst_queue_reads         159548870                       # Number of integer instruction queue reads
system.cpu0.iq.int_inst_queue_writes        119697866                       # Number of integer instruction queue writes
system.cpu0.iq.int_inst_queue_wakeup_accesses     59955893                       # Number of integer instruction queue wakeup accesses
system.cpu0.iq.fp_inst_queue_reads           15005379                       # Number of floating instruction queue reads
system.cpu0.iq.fp_inst_queue_writes          17812086                       # Number of floating instruction queue writes
system.cpu0.iq.fp_inst_queue_wakeup_accesses      6643598                       # Number of floating instruction queue wakeup accesses
system.cpu0.iq.vec_inst_queue_reads                 0                       # Number of vector instruction queue reads
system.cpu0.iq.vec_inst_queue_writes                0                       # Number of vector instruction queue writes
system.cpu0.iq.vec_inst_queue_wakeup_accesses            0                       # Number of vector instruction queue wakeup accesses
system.cpu0.iq.int_alu_accesses              63100668                       # Number of integer alu accesses
system.cpu0.iq.fp_alu_accesses                7509691                       # Number of floating point alu accesses
system.cpu0.iq.vec_alu_accesses                     0                       # Number of vector alu accesses
system.cpu0.iew.lsq.thread0.forwLoads          212618                       # Number of loads that had data forwarded from stores
system.cpu0.iew.lsq.thread0.invAddrLoads            0                       # Number of loads ignored due to an invalid address
system.cpu0.iew.lsq.thread0.squashedLoads      5776915                       # Number of loads squashed
system.cpu0.iew.lsq.thread0.ignoredResponses         3983                       # Number of memory responses ignored because the instruction is squashed
system.cpu0.iew.lsq.thread0.memOrderViolation          284                       # Number of memory ordering violations
system.cpu0.iew.lsq.thread0.squashedStores      1605513                       # Number of stores squashed
system.cpu0.iew.lsq.thread0.invAddrSwpfs            0                       # Number of software prefetches ignored due to an invalid address
system.cpu0.iew.lsq.thread0.blockedLoads            0                       # Number of blocked loads due to partial load-store forwarding
system.cpu0.iew.lsq.thread0.rescheduledLoads         3435                       # Number of loads that were rescheduled
system.cpu0.iew.lsq.thread0.cacheBlocked           22                       # Number of times an access to memory failed due to the cache being blocked
system.cpu0.iew.iewIdleCycles                       0                       # Number of cycles IEW is idle
system.cpu0.iew.iewSquashCycles               1387983                       # Number of cycles IEW is squashing
system.cpu0.iew.iewBlockCycles                6164727                       # Number of cycles IEW is blocking
system.cpu0.iew.iewUnblockCycles                10670                       # Number of cycles IEW is unblocking
system.cpu0.iew.iewDispatchedInsts           89509873                       # Number of instructions dispatched to IQ
system.cpu0.iew.iewDispSquashedInsts            49613                       # Number of squashed instructions skipped by dispatch
system.cpu0.iew.iewDispLoadInsts              9493263                       # Number of dispatched load instructions
system.cpu0.iew.iewDispStoreInsts             3326299                       # Number of dispatched store instructions
system.cpu0.iew.iewDispNonSpecInsts             88917                       # Number of dispatched non-speculative instructions
system.cpu0.iew.iewIQFullEvents                  5707                       # Number of times the IQ has become full, causing a stall
system.cpu0.iew.iewLSQFullEvents                 3269                       # Number of times the LSQ has become full, causing a stall
system.cpu0.iew.memOrderViolationEvents           284                       # Number of memory order violations
system.cpu0.iew.predictedTakenIncorrect        421167                       # Number of branches that were predicted taken incorrectly
system.cpu0.iew.predictedNotTakenIncorrect      1321533                       # Number of branches that were predicted not taken incorrectly
system.cpu0.iew.branchMispredicts             1742700                       # Number of branch mispredicts detected at execute
system.cpu0.iew.iewExecutedInsts             67810640                       # Number of executed instructions
system.cpu0.iew.iewExecLoadInsts              6908630                       # Number of load instructions executed
system.cpu0.iew.iewExecSquashedInsts          3088265                       # Number of squashed instructions skipped in execute
system.cpu0.iew.exec_swp                            0                       # number of swp insts executed
system.cpu0.iew.exec_nop                            0                       # number of nop insts executed
system.cpu0.iew.exec_refs                     9298836                       # number of memory reference insts executed
system.cpu0.iew.exec_branches                 6242231                       # Number of branches executed
system.cpu0.iew.exec_stores                   2390206                       # Number of stores executed
system.cpu0.iew.exec_rate                    2.220774                       # Inst execution rate
system.cpu0.iew.wb_sent                      67166722                       # cumulative count of insts sent to commit
system.cpu0.iew.wb_count                     66599491                       # cumulative count of insts written-back
system.cpu0.iew.wb_producers                 49240935                       # num instructions producing a value
system.cpu0.iew.wb_consumers                 87385771                       # num instructions consuming a value
system.cpu0.iew.wb_rate                      2.181109                       # insts written-back per cycle
system.cpu0.iew.wb_fanout                    0.563489                       # average fanout of values written-back
system.cpu0.commit.commitSquashedInsts       48000083                       # The number of squashed insts skipped by commit
system.cpu0.commit.commitNonSpecStalls            140                       # The number of times commit has been forced to stall to communicate backwards
system.cpu0.commit.branchMispredicts          1387821                       # The number of times a branch was mispredicted
system.cpu0.commit.committed_per_cycle::samples     23237637                       # Number of insts commited each cycle
system.cpu0.commit.committed_per_cycle::mean     1.786326                       # Number of insts commited each cycle
system.cpu0.commit.committed_per_cycle::stdev     2.416412                       # Number of insts commited each cycle
system.cpu0.commit.committed_per_cycle::underflows            0      0.00%      0.00% # Number of insts commited each cycle
system.cpu0.commit.committed_per_cycle::0     10850046     46.69%     46.69% # Number of insts commited each cycle
system.cpu0.commit.committed_per_cycle::1      2996370     12.89%     59.59% # Number of insts commited each cycle
system.cpu0.commit.committed_per_cycle::2      3371250     14.51%     74.09% # Number of insts commited each cycle
system.cpu0.commit.committed_per_cycle::3      1859091      8.00%     82.09% # Number of insts commited each cycle
system.cpu0.commit.committed_per_cycle::4       963140      4.14%     86.24% # Number of insts commited each cycle
system.cpu0.commit.committed_per_cycle::5       751177      3.23%     89.47% # Number of insts commited each cycle
system.cpu0.commit.committed_per_cycle::6       329759      1.42%     90.89% # Number of insts commited each cycle
system.cpu0.commit.committed_per_cycle::7       327571      1.41%     92.30% # Number of insts commited each cycle
system.cpu0.commit.committed_per_cycle::8      1789233      7.70%    100.00% # Number of insts commited each cycle
system.cpu0.commit.committed_per_cycle::overflows            0      0.00%    100.00% # Number of insts commited each cycle
system.cpu0.commit.committed_per_cycle::min_value            0                       # Number of insts commited each cycle
system.cpu0.commit.committed_per_cycle::max_value            8                       # Number of insts commited each cycle
system.cpu0.commit.committed_per_cycle::total     23237637                       # Number of insts commited each cycle
system.cpu0.commit.committedInsts            18945595                       # Number of instructions committed
system.cpu0.commit.committedOps              41510003                       # Number of ops (including micro ops) committed
system.cpu0.commit.swp_count                        0                       # Number of s/w prefetches committed
system.cpu0.commit.refs                       5437125                       # Number of memory references committed
system.cpu0.commit.loads                      3716343                       # Number of loads committed
system.cpu0.commit.membars                         80                       # Number of memory barriers committed
system.cpu0.commit.branches                   4339335                       # Number of branches committed
system.cpu0.commit.vec_insts                        0                       # Number of committed Vector instructions.
system.cpu0.commit.fp_insts                   3064758                       # Number of committed floating point instructions.
system.cpu0.commit.int_insts                 38883206                       # Number of committed integer instructions.
system.cpu0.commit.function_calls              372505                       # Number of function calls committed.
system.cpu0.commit.op_class_0::No_OpClass       697767      1.68%      1.68% # Class of committed instruction
system.cpu0.commit.op_class_0::IntAlu        33009102     79.52%     81.20% # Class of committed instruction
system.cpu0.commit.op_class_0::IntMult           1959      0.00%     81.21% # Class of committed instruction
system.cpu0.commit.op_class_0::IntDiv           49470      0.12%     81.33% # Class of committed instruction
system.cpu0.commit.op_class_0::FloatAdd       2314580      5.58%     86.90% # Class of committed instruction
system.cpu0.commit.op_class_0::FloatCmp             0      0.00%     86.90% # Class of committed instruction
system.cpu0.commit.op_class_0::FloatCvt             0      0.00%     86.90% # Class of committed instruction
system.cpu0.commit.op_class_0::FloatMult            0      0.00%     86.90% # Class of committed instruction
system.cpu0.commit.op_class_0::FloatMultAcc            0      0.00%     86.90% # Class of committed instruction
system.cpu0.commit.op_class_0::FloatDiv             0      0.00%     86.90% # Class of committed instruction
system.cpu0.commit.op_class_0::FloatMisc            0      0.00%     86.90% # Class of committed instruction
system.cpu0.commit.op_class_0::FloatSqrt            0      0.00%     86.90% # Class of committed instruction
system.cpu0.commit.op_class_0::SimdAdd              0      0.00%     86.90% # Class of committed instruction
system.cpu0.commit.op_class_0::SimdAddAcc            0      0.00%     86.90% # Class of committed instruction
system.cpu0.commit.op_class_0::SimdAlu              0      0.00%     86.90% # Class of committed instruction
system.cpu0.commit.op_class_0::SimdCmp              0      0.00%     86.90% # Class of committed instruction
system.cpu0.commit.op_class_0::SimdCvt              0      0.00%     86.90% # Class of committed instruction
system.cpu0.commit.op_class_0::SimdMisc             0      0.00%     86.90% # Class of committed instruction
system.cpu0.commit.op_class_0::SimdMult             0      0.00%     86.90% # Class of committed instruction
system.cpu0.commit.op_class_0::SimdMultAcc            0      0.00%     86.90% # Class of committed instruction
system.cpu0.commit.op_class_0::SimdShift            0      0.00%     86.90% # Class of committed instruction
system.cpu0.commit.op_class_0::SimdShiftAcc            0      0.00%     86.90% # Class of committed instruction
system.cpu0.commit.op_class_0::SimdSqrt             0      0.00%     86.90% # Class of committed instruction
system.cpu0.commit.op_class_0::SimdFloatAdd            0      0.00%     86.90% # Class of committed instruction
system.cpu0.commit.op_class_0::SimdFloatAlu            0      0.00%     86.90% # Class of committed instruction
system.cpu0.commit.op_class_0::SimdFloatCmp            0      0.00%     86.90% # Class of committed instruction
system.cpu0.commit.op_class_0::SimdFloatCvt            0      0.00%     86.90% # Class of committed instruction
system.cpu0.commit.op_class_0::SimdFloatDiv            0      0.00%     86.90% # Class of committed instruction
system.cpu0.commit.op_class_0::SimdFloatMisc            0      0.00%     86.90% # Class of committed instruction
system.cpu0.commit.op_class_0::SimdFloatMult            0      0.00%     86.90% # Class of committed instruction
system.cpu0.commit.op_class_0::SimdFloatMultAcc            0      0.00%     86.90% # Class of committed instruction
system.cpu0.commit.op_class_0::SimdFloatSqrt            0      0.00%     86.90% # Class of committed instruction
system.cpu0.commit.op_class_0::MemRead        2977295      7.17%     94.07% # Class of committed instruction
system.cpu0.commit.op_class_0::MemWrite       1720782      4.15%     98.22% # Class of committed instruction
system.cpu0.commit.op_class_0::FloatMemRead       739048      1.78%    100.00% # Class of committed instruction
system.cpu0.commit.op_class_0::FloatMemWrite            0      0.00%    100.00% # Class of committed instruction
system.cpu0.commit.op_class_0::IprAccess            0      0.00%    100.00% # Class of committed instruction
system.cpu0.commit.op_class_0::InstPrefetch            0      0.00%    100.00% # Class of committed instruction
system.cpu0.commit.op_class_0::total         41510003                       # Class of committed instruction
system.cpu0.commit.bw_lim_events              1789233                       # number cycles where commit BW limit reached
system.cpu0.rob.rob_reads                   110958490                       # The number of ROB reads
system.cpu0.rob.rob_writes                  186456851                       # The number of ROB writes
system.cpu0.timesIdled                             99                       # Number of times that the entire CPU went into an idle state and unscheduled itself
system.cpu0.idleCycles                           1170                       # Total number of cycles that the CPU has spent unscheduled due to idling
system.cpu0.committedInsts                   18945595                       # Number of Instructions Simulated
system.cpu0.committedOps                     41510003                       # Number of Ops (including micro ops) Simulated
system.cpu0.cpi                              1.611704                       # CPI: Cycles Per Instruction
system.cpu0.cpi_total                        1.611704                       # CPI: Total CPI of All Threads
system.cpu0.ipc                              0.620461                       # IPC: Instructions Per Cycle
system.cpu0.ipc_total                        0.620461                       # IPC: Total IPC of All Threads
system.cpu0.int_regfile_reads                86800332                       # number of integer regfile reads
system.cpu0.int_regfile_writes               51216457                       # number of integer regfile writes
system.cpu0.fp_regfile_reads                 10489505                       # number of floating regfile reads
system.cpu0.fp_regfile_writes                 6267032                       # number of floating regfile writes
system.cpu0.cc_regfile_reads                 35964697                       # number of cc regfile reads
system.cpu0.cc_regfile_writes                17928889                       # number of cc regfile writes
system.cpu0.misc_regfile_reads               22075033                       # number of misc regfile reads
system.cpu0.dcache.tags.pwrStateResidencyTicks::UNDEFINED  15267344125                       # Cumulative time (in ticks) in various power states
system.cpu0.dcache.tags.replacements            23155                       # number of replacements
system.cpu0.dcache.tags.tagsinuse                1024                       # Cycle average of tags in use
system.cpu0.dcache.tags.total_refs             592911                       # Total number of references to valid blocks.
system.cpu0.dcache.tags.sampled_refs            23155                       # Sample count of references to valid blocks.
system.cpu0.dcache.tags.avg_refs            25.606176                       # Average number of references to valid blocks.
system.cpu0.dcache.tags.warmup_cycle                0                       # Cycle when the warmup percentage was hit.
system.cpu0.dcache.tags.occ_blocks::cpu0.data         1024                       # Average occupied blocks per requestor
system.cpu0.dcache.tags.occ_percent::cpu0.data            1                       # Average percentage of cache occupancy
system.cpu0.dcache.tags.occ_percent::total            1                       # Average percentage of cache occupancy
system.cpu0.dcache.tags.occ_task_id_blocks::1024         1024                       # Occupied blocks per task id
system.cpu0.dcache.tags.age_task_id_blocks_1024::0           16                       # Occupied blocks per task id
system.cpu0.dcache.tags.age_task_id_blocks_1024::1          118                       # Occupied blocks per task id
system.cpu0.dcache.tags.age_task_id_blocks_1024::2          780                       # Occupied blocks per task id
system.cpu0.dcache.tags.age_task_id_blocks_1024::3           56                       # Occupied blocks per task id
system.cpu0.dcache.tags.age_task_id_blocks_1024::4           54                       # Occupied blocks per task id
system.cpu0.dcache.tags.occ_task_id_percent::1024            1                       # Percentage of cache occupancy per task id
system.cpu0.dcache.tags.tag_accesses         33498267                       # Number of tag accesses
system.cpu0.dcache.tags.data_accesses        33498267                       # Number of data accesses
system.cpu0.dcache.pwrStateResidencyTicks::UNDEFINED  15267344125                       # Cumulative time (in ticks) in various power states
system.cpu0.dcache.ReadReq_hits::cpu0.data      6613505                       # number of ReadReq hits
system.cpu0.dcache.ReadReq_hits::total        6613505                       # number of ReadReq hits
system.cpu0.dcache.WriteReq_hits::cpu0.data      1710271                       # number of WriteReq hits
system.cpu0.dcache.WriteReq_hits::total       1710271                       # number of WriteReq hits
system.cpu0.dcache.demand_hits::cpu0.data      8323776                       # number of demand (read+write) hits
system.cpu0.dcache.demand_hits::total         8323776                       # number of demand (read+write) hits
system.cpu0.dcache.overall_hits::cpu0.data      8323776                       # number of overall hits
system.cpu0.dcache.overall_hits::total        8323776                       # number of overall hits
system.cpu0.dcache.ReadReq_misses::cpu0.data        34312                       # number of ReadReq misses
system.cpu0.dcache.ReadReq_misses::total        34312                       # number of ReadReq misses
system.cpu0.dcache.WriteReq_misses::cpu0.data        10690                       # number of WriteReq misses
system.cpu0.dcache.WriteReq_misses::total        10690                       # number of WriteReq misses
system.cpu0.dcache.demand_misses::cpu0.data        45002                       # number of demand (read+write) misses
system.cpu0.dcache.demand_misses::total         45002                       # number of demand (read+write) misses
system.cpu0.dcache.overall_misses::cpu0.data        45002                       # number of overall misses
system.cpu0.dcache.overall_misses::total        45002                       # number of overall misses
system.cpu0.dcache.ReadReq_miss_latency::cpu0.data   2324682000                       # number of ReadReq miss cycles
system.cpu0.dcache.ReadReq_miss_latency::total   2324682000                       # number of ReadReq miss cycles
system.cpu0.dcache.WriteReq_miss_latency::cpu0.data    997580000                       # number of WriteReq miss cycles
system.cpu0.dcache.WriteReq_miss_latency::total    997580000                       # number of WriteReq miss cycles
system.cpu0.dcache.demand_miss_latency::cpu0.data   3322262000                       # number of demand (read+write) miss cycles
system.cpu0.dcache.demand_miss_latency::total   3322262000                       # number of demand (read+write) miss cycles
system.cpu0.dcache.overall_miss_latency::cpu0.data   3322262000                       # number of overall miss cycles
system.cpu0.dcache.overall_miss_latency::total   3322262000                       # number of overall miss cycles
system.cpu0.dcache.ReadReq_accesses::cpu0.data      6647817                       # number of ReadReq accesses(hits+misses)
system.cpu0.dcache.ReadReq_accesses::total      6647817                       # number of ReadReq accesses(hits+misses)
system.cpu0.dcache.WriteReq_accesses::cpu0.data      1720961                       # number of WriteReq accesses(hits+misses)
system.cpu0.dcache.WriteReq_accesses::total      1720961                       # number of WriteReq accesses(hits+misses)
system.cpu0.dcache.demand_accesses::cpu0.data      8368778                       # number of demand (read+write) accesses
system.cpu0.dcache.demand_accesses::total      8368778                       # number of demand (read+write) accesses
system.cpu0.dcache.overall_accesses::cpu0.data      8368778                       # number of overall (read+write) accesses
system.cpu0.dcache.overall_accesses::total      8368778                       # number of overall (read+write) accesses
system.cpu0.dcache.ReadReq_miss_rate::cpu0.data     0.005161                       # miss rate for ReadReq accesses
system.cpu0.dcache.ReadReq_miss_rate::total     0.005161                       # miss rate for ReadReq accesses
system.cpu0.dcache.WriteReq_miss_rate::cpu0.data     0.006212                       # miss rate for WriteReq accesses
system.cpu0.dcache.WriteReq_miss_rate::total     0.006212                       # miss rate for WriteReq accesses
system.cpu0.dcache.demand_miss_rate::cpu0.data     0.005377                       # miss rate for demand accesses
system.cpu0.dcache.demand_miss_rate::total     0.005377                       # miss rate for demand accesses
[...]
system.l2.WritebackDirty_accesses::writebacks        17943                       # number of WritebackDirty accesses(hits+misses)
system.l2.WritebackDirty_accesses::total        17943                       # number of WritebackDirty accesses(hits+misses)
system.l2.WritebackClean_accesses::writebacks         1124                       # number of WritebackClean accesses(hits+misses)
system.l2.WritebackClean_accesses::total         1124                       # number of WritebackClean accesses(hits+misses)
system.l2.UpgradeReq_accesses::cpu0.data           20                       # number of UpgradeReq accesses(hits+misses)
system.l2.UpgradeReq_accesses::total               20                       # number of UpgradeReq accesses(hits+misses)
system.l2.ReadExReq_accesses::cpu0.data         10107                       # number of ReadExReq accesses(hits+misses)
system.l2.ReadExReq_accesses::total             10107                       # number of ReadExReq accesses(hits+misses)
system.l2.ReadCleanReq_accesses::cpu0.inst         1124                       # number of ReadCleanReq accesses(hits+misses)
system.l2.ReadCleanReq_accesses::total           1124                       # number of ReadCleanReq accesses(hits+misses)
system.l2.ReadSharedReq_accesses::cpu0.data        13048                       # number of ReadSharedReq accesses(hits+misses)
system.l2.ReadSharedReq_accesses::total         13048                       # number of ReadSharedReq accesses(hits+misses)
system.l2.demand_accesses::cpu0.inst             1124                       # number of demand (read+write) accesses
system.l2.demand_accesses::cpu0.data            23155                       # number of demand (read+write) accesses
system.l2.demand_accesses::total                24279                       # number of demand (read+write) accesses
system.l2.overall_accesses::cpu0.inst            1124                       # number of overall (read+write) accesses
system.l2.overall_accesses::cpu0.data           23155                       # number of overall (read+write) accesses
system.l2.overall_accesses::total               24279                       # number of overall (read+write) accesses
system.l2.ReadExReq_miss_rate::cpu0.data     0.986742                       # miss rate for ReadExReq accesses
system.l2.ReadExReq_miss_rate::total         0.986742                       # miss rate for ReadExReq accesses
system.l2.ReadSharedReq_miss_rate::cpu0.data     0.686925                       # miss rate for ReadSharedReq accesses
system.l2.ReadSharedReq_miss_rate::total     0.686925                       # miss rate for ReadSharedReq accesses
system.l2.demand_miss_rate::cpu0.data        0.817793                       # miss rate for demand accesses
system.l2.demand_miss_rate::total            0.779933                       # miss rate for demand accesses
system.l2.overall_miss_rate::cpu0.data       0.817793                       # miss rate for overall accesses
system.l2.overall_miss_rate::total           0.779933                       # miss rate for overall accesses
system.l2.ReadExReq_avg_miss_latency::cpu0.data 92864.734784                       # average ReadExReq miss latency
system.l2.ReadExReq_avg_miss_latency::total 92864.734784                       # average ReadExReq miss latency
system.l2.ReadSharedReq_avg_miss_latency::cpu0.data 103638.290751                       # average ReadSharedReq miss latency
system.l2.ReadSharedReq_avg_miss_latency::total 103638.290751                       # average ReadSharedReq miss latency
system.l2.demand_avg_miss_latency::cpu0.data 97964.195184                       # average overall miss latency
system.l2.demand_avg_miss_latency::total 97964.195184                       # average overall miss latency
system.l2.overall_avg_miss_latency::cpu0.data 97964.195184                       # average overall miss latency
system.l2.overall_avg_miss_latency::total 97964.195184                       # average overall miss latency
system.l2.blocked_cycles::no_mshrs                  0                       # number of cycles access was blocked
system.l2.blocked_cycles::no_targets                0                       # number of cycles access was blocked
system.l2.blocked::no_mshrs                         0                       # number of cycles access was blocked
system.l2.blocked::no_targets                       0                       # number of cycles access was blocked
system.l2.avg_blocked_cycles::no_mshrs            nan                       # average number of cycles each access was blocked
system.l2.avg_blocked_cycles::no_targets          nan                       # average number of cycles each access was blocked
system.l2.writebacks::writebacks                16183                       # number of writebacks
system.l2.writebacks::total                     16183                       # number of writebacks
system.l2.CleanEvict_mshr_misses::writebacks            1                       # number of CleanEvict MSHR misses
system.l2.CleanEvict_mshr_misses::total             1                       # number of CleanEvict MSHR misses
system.l2.ReadExReq_mshr_misses::cpu0.data         9973                       # number of ReadExReq MSHR misses
system.l2.ReadExReq_mshr_misses::total           9973                       # number of ReadExReq MSHR misses
system.l2.ReadSharedReq_mshr_misses::cpu0.data         8963                       # number of ReadSharedReq MSHR misses
system.l2.ReadSharedReq_mshr_misses::total         8963                       # number of ReadSharedReq MSHR misses
system.l2.demand_mshr_misses::cpu0.data         18936                       # number of demand (read+write) MSHR misses
system.l2.demand_mshr_misses::total             18936                       # number of demand (read+write) MSHR misses
system.l2.overall_mshr_misses::cpu0.data        18936                       # number of overall MSHR misses
system.l2.overall_mshr_misses::total            18936                       # number of overall MSHR misses
system.l2.ReadExReq_mshr_miss_latency::cpu0.data    826410000                       # number of ReadExReq MSHR miss cycles
system.l2.ReadExReq_mshr_miss_latency::total    826410000                       # number of ReadExReq MSHR miss cycles
system.l2.ReadSharedReq_mshr_miss_latency::cpu0.data    839280000                       # number of ReadSharedReq MSHR miss cycles
system.l2.ReadSharedReq_mshr_miss_latency::total    839280000                       # number of ReadSharedReq MSHR miss cycles
system.l2.demand_mshr_miss_latency::cpu0.data   1665690000                       # number of demand (read+write) MSHR miss cycles
system.l2.demand_mshr_miss_latency::total   1665690000                       # number of demand (read+write) MSHR miss cycles
system.l2.overall_mshr_miss_latency::cpu0.data   1665690000                       # number of overall MSHR miss cycles
system.l2.overall_mshr_miss_latency::total   1665690000                       # number of overall MSHR miss cycles
system.l2.CleanEvict_mshr_miss_rate::writebacks          inf                       # mshr miss rate for CleanEvict accesses
system.l2.CleanEvict_mshr_miss_rate::total          inf                       # mshr miss rate for CleanEvict accesses
system.l2.ReadExReq_mshr_miss_rate::cpu0.data     0.986742                       # mshr miss rate for ReadExReq accesses
system.l2.ReadExReq_mshr_miss_rate::total     0.986742                       # mshr miss rate for ReadExReq accesses
system.l2.ReadSharedReq_mshr_miss_rate::cpu0.data     0.686925                       # mshr miss rate for ReadSharedReq accesses
system.l2.ReadSharedReq_mshr_miss_rate::total     0.686925                       # mshr miss rate for ReadSharedReq accesses
system.l2.demand_mshr_miss_rate::cpu0.data     0.817793                       # mshr miss rate for demand accesses
system.l2.demand_mshr_miss_rate::total       0.779933                       # mshr miss rate for demand accesses
system.l2.overall_mshr_miss_rate::cpu0.data     0.817793                       # mshr miss rate for overall accesses
system.l2.overall_mshr_miss_rate::total      0.779933                       # mshr miss rate for overall accesses
system.l2.ReadExReq_avg_mshr_miss_latency::cpu0.data 82864.734784                       # average ReadExReq mshr miss latency
system.l2.ReadExReq_avg_mshr_miss_latency::total 82864.734784                       # average ReadExReq mshr miss latency
system.l2.ReadSharedReq_avg_mshr_miss_latency::cpu0.data 93638.290751                       # average ReadSharedReq mshr miss latency
system.l2.ReadSharedReq_avg_mshr_miss_latency::total 93638.290751                       # average ReadSharedReq mshr miss latency
system.l2.demand_avg_mshr_miss_latency::cpu0.data 87964.195184                       # average overall mshr miss latency
system.l2.demand_avg_mshr_miss_latency::total 87964.195184                       # average overall mshr miss latency
system.l2.overall_avg_mshr_miss_latency::cpu0.data 87964.195184                       # average overall mshr miss latency
system.l2.overall_avg_mshr_miss_latency::total 87964.195184                       # average overall mshr miss latency
system.membus.snoop_filter.tot_requests         37871                       # Total number of requests made to the snoop filter.
system.membus.snoop_filter.hit_single_requests        18938                       # Number of requests hitting in the snoop filter with a single holder of the requested data.
system.membus.snoop_filter.hit_multi_requests            0                       # Number of requests hitting in the snoop filter with multiple (>1) holders of the requested data.
system.membus.snoop_filter.tot_snoops               0                       # Total number of snoops made to the snoop filter.
system.membus.snoop_filter.hit_single_snoops            0                       # Number of snoops hitting in the snoop filter with a single holder of the requested data.
system.membus.snoop_filter.hit_multi_snoops            0                       # Number of snoops hitting in the snoop filter with multiple (>1) holders of the requested data.
system.membus.pwrStateResidencyTicks::UNDEFINED  15267344125                       # Cumulative time (in ticks) in various power states
system.membus.trans_dist::ReadResp               8963                       # Transaction distribution
system.membus.trans_dist::WritebackDirty        16183                       # Transaction distribution
system.membus.trans_dist::CleanEvict             2752                       # Transaction distribution
system.membus.trans_dist::ReadExReq              9973                       # Transaction distribution
system.membus.trans_dist::ReadExResp             9973                       # Transaction distribution
system.membus.trans_dist::ReadSharedReq          8963                       # Transaction distribution
system.membus.pkt_count_system.l2.mem_side::system.mem_ctrls.port        56807                       # Packet count per connected master and slave (bytes)
system.membus.pkt_count_system.l2.mem_side::total        56807                       # Packet count per connected master and slave (bytes)
system.membus.pkt_count::total                  56807                       # Packet count per connected master and slave (bytes)
system.membus.pkt_size_system.l2.mem_side::system.mem_ctrls.port      2247616                       # Cumulative packet size per connected master and slave (bytes)
system.membus.pkt_size_system.l2.mem_side::total      2247616                       # Cumulative packet size per connected master and slave (bytes)
system.membus.pkt_size::total                 2247616                       # Cumulative packet size per connected master and slave (bytes)
system.membus.snoops                                0                       # Total snoops (count)
system.membus.snoopTraffic                          0                       # Total snoop traffic (bytes)
system.membus.snoop_fanout::samples             18936                       # Request fanout histogram
system.membus.snoop_fanout::mean                    0                       # Request fanout histogram
system.membus.snoop_fanout::stdev                   0                       # Request fanout histogram
system.membus.snoop_fanout::underflows              0      0.00%      0.00% # Request fanout histogram
system.membus.snoop_fanout::0                   18936    100.00%    100.00% # Request fanout histogram
system.membus.snoop_fanout::1                       0      0.00%    100.00% # Request fanout histogram
system.membus.snoop_fanout::overflows               0      0.00%    100.00% # Request fanout histogram
system.membus.snoop_fanout::min_value               0                       # Request fanout histogram
system.membus.snoop_fanout::max_value               0                       # Request fanout histogram
system.membus.snoop_fanout::total               18936                       # Request fanout histogram
system.membus.reqLayer8.occupancy           107301500                       # Layer occupancy (ticks)
system.membus.reqLayer8.utilization               0.7                       # Layer utilization (%)
system.membus.respLayer1.occupancy          102751500                       # Layer occupancy (ticks)
system.membus.respLayer1.utilization              0.7                       # Layer utilization (%)
system.tol2bus.snoop_filter.tot_requests        48598                       # Total number of requests made to the snoop filter.
system.tol2bus.snoop_filter.hit_single_requests        24277                       # Number of requests hitting in the snoop filter with a single holder of the requested data.
system.tol2bus.snoop_filter.hit_multi_requests           93                       # Number of requests hitting in the snoop filter with multiple (>1) holders of the requested data.
system.tol2bus.snoop_filter.tot_snoops              5                       # Total number of snoops made to the snoop filter.
system.tol2bus.snoop_filter.hit_single_snoops            5                       # Number of snoops hitting in the snoop filter with a single holder of the requested data.
system.tol2bus.snoop_filter.hit_multi_snoops            0                       # Number of snoops hitting in the snoop filter with multiple (>1) holders of the requested data.
system.tol2bus.pwrStateResidencyTicks::UNDEFINED  15267344125                       # Cumulative time (in ticks) in various power states
system.tol2bus.trans_dist::ReadResp             14192                       # Transaction distribution
system.tol2bus.trans_dist::WritebackDirty        34126                       # Transaction distribution
system.tol2bus.trans_dist::WritebackClean         1124                       # Transaction distribution
system.tol2bus.trans_dist::CleanEvict            7968                       # Transaction distribution
system.tol2bus.trans_dist::UpgradeReq              20                       # Transaction distribution
system.tol2bus.trans_dist::UpgradeResp             20                       # Transaction distribution
system.tol2bus.trans_dist::ReadExReq            10107                       # Transaction distribution
system.tol2bus.trans_dist::ReadExResp           10107                       # Transaction distribution
system.tol2bus.trans_dist::ReadCleanReq          1144                       # Transaction distribution
system.tol2bus.trans_dist::ReadSharedReq        13048                       # Transaction distribution
system.tol2bus.pkt_count_system.cpu0.icache.mem_side::system.l2.cpu_side         3392                       # Packet count per connected master and slave (bytes)
system.tol2bus.pkt_count_system.cpu0.dcache.mem_side::system.l2.cpu_side        69505                       # Packet count per connected master and slave (bytes)
system.tol2bus.pkt_count::total                 72897                       # Packet count per connected master and slave (bytes)
system.tol2bus.pkt_size_system.cpu0.icache.mem_side::system.l2.cpu_side       143872                       # Cumulative packet size per connected master and slave (bytes)
system.tol2bus.pkt_size_system.cpu0.dcache.mem_side::system.l2.cpu_side      2630272                       # Cumulative packet size per connected master and slave (bytes)
system.tol2bus.pkt_size::total                2774144                       # Cumulative packet size per connected master and slave (bytes)
system.tol2bus.snoops                           18959                       # Total snoops (count)
system.tol2bus.snoopTraffic                   1036992                       # Total snoop traffic (bytes)
system.tol2bus.snoop_fanout::samples            43258                       # Request fanout histogram
system.tol2bus.snoop_fanout::mean            0.002219                       # Request fanout histogram
system.tol2bus.snoop_fanout::stdev           0.047057                       # Request fanout histogram
system.tol2bus.snoop_fanout::underflows             0      0.00%      0.00% # Request fanout histogram
system.tol2bus.snoop_fanout::0                  43162     99.78%     99.78% # Request fanout histogram
system.tol2bus.snoop_fanout::1                     96      0.22%    100.00% # Request fanout histogram
system.tol2bus.snoop_fanout::2                      0      0.00%    100.00% # Request fanout histogram
system.tol2bus.snoop_fanout::3                      0      0.00%    100.00% # Request fanout histogram
system.tol2bus.snoop_fanout::4                      0      0.00%    100.00% # Request fanout histogram
system.tol2bus.snoop_fanout::5                      0      0.00%    100.00% # Request fanout histogram
system.tol2bus.snoop_fanout::6                      0      0.00%    100.00% # Request fanout histogram
system.tol2bus.snoop_fanout::7                      0      0.00%    100.00% # Request fanout histogram
system.tol2bus.snoop_fanout::8                      0      0.00%    100.00% # Request fanout histogram
system.tol2bus.snoop_fanout::9                      0      0.00%    100.00% # Request fanout histogram
system.tol2bus.snoop_fanout::10                     0      0.00%    100.00% # Request fanout histogram
system.tol2bus.snoop_fanout::11                     0      0.00%    100.00% # Request fanout histogram
system.tol2bus.snoop_fanout::12                     0      0.00%    100.00% # Request fanout histogram
system.tol2bus.snoop_fanout::13                     0      0.00%    100.00% # Request fanout histogram
system.tol2bus.snoop_fanout::14                     0      0.00%    100.00% # Request fanout histogram
system.tol2bus.snoop_fanout::15                     0      0.00%    100.00% # Request fanout histogram
system.tol2bus.snoop_fanout::16                     0      0.00%    100.00% # Request fanout histogram
system.tol2bus.snoop_fanout::overflows              0      0.00%    100.00% # Request fanout histogram
system.tol2bus.snoop_fanout::min_value              0                       # Request fanout histogram
system.tol2bus.snoop_fanout::max_value              1                       # Request fanout histogram
system.tol2bus.snoop_fanout::total              43258                       # Request fanout histogram
system.tol2bus.reqLayer0.occupancy           43366000                       # Layer occupancy (ticks)
system.tol2bus.reqLayer0.utilization              0.3                       # Layer utilization (%)
system.tol2bus.respLayer0.occupancy           1716000                       # Layer occupancy (ticks)
system.tol2bus.respLayer0.utilization             0.0                       # Layer utilization (%)
system.tol2bus.respLayer1.occupancy          34744496                       # Layer occupancy (ticks)
system.tol2bus.respLayer1.utilization             0.2                       # Layer utilization (%)

---------- End Simulation Statistics   ----------
