
---------- Begin Simulation Statistics ----------
sim_seconds                                  0.015267                       # Number of seconds simulated
sim_ticks                                 15267344125                       # Number of ticks simulated
final_tick                               9908506337125                       # Number of ticks from beginning of simulation (restored from checkpoints and never reset)
sim_freq                                 1000000000000                       # Frequency of simulated ticks
host_inst_rate                               83553749                       # Simulator instruction rate (inst/s)
host_op_rate                                155790169                       # Simulator op (including micro ops) rate (op/s)
host_tick_rate                              210378668                       # Simulator tick rate (ticks/s)
host_mem_usage                                1248940                       # Number of bytes of host memory used
host_seconds                                    72.57                       # Real time elapsed on the host
sim_insts                                  6063557792                       # Number of instructions simulated
sim_ops                                   11305811542                       # Number of ops (including micro ops) simulated
system.voltage_domain.voltage                       1                       # Voltage in Volts
system.clk_domain.clock                          1000                       # Clock period in ticks
system.mem_ctrls.pwrStateResidencyTicks::UNDEFINED  15267344125                       # Cumulative time (in ticks) in various power states
system.mem_ctrls.bytes_read::cpu0.data       12763584                       # Number of bytes read from this memory
system.mem_ctrls.bytes_read::total           12763584                       # Number of bytes read from this memory
system.mem_ctrls.bytes_written::writebacks        18176                       # Number of bytes written to this memory
system.mem_ctrls.bytes_written::total           18176                       # Number of bytes written to this memory
system.mem_ctrls.num_reads::cpu0.data          199431                       # Number of read requests responded to by this memory
system.mem_ctrls.num_reads::total              199431                       # Number of read requests responded to by this memory
system.mem_ctrls.num_writes::writebacks           284                       # Number of write requests responded to by this memory
system.mem_ctrls.num_writes::total                284                       # Number of write requests responded to by this memory
system.mem_ctrls.bw_read::cpu0.data         836005522                       # Total read bandwidth from this memory (bytes/s)
system.mem_ctrls.bw_read::total             836005522                       # Total read bandwidth from this memory (bytes/s)
system.mem_ctrls.bw_write::writebacks         1190515                       # Write bandwidth from this memory (bytes/s)
system.mem_ctrls.bw_write::total              1190515                       # Write bandwidth from this memory (bytes/s)
system.mem_ctrls.bw_total::writebacks         1190515                       # Total bandwidth to/from this memory (bytes/s)
system.mem_ctrls.bw_total::cpu0.data        836005522                       # Total bandwidth to/from this memory (bytes/s)
system.mem_ctrls.bw_total::total            837196037                       # Total bandwidth to/from this memory (bytes/s)
system.mem_ctrls.readReqs                      199431                       # Number of read requests accepted
system.mem_ctrls.writeReqs                        284                       # Number of write requests accepted
system.mem_ctrls.readBursts                    199431                       # Number of DRAM read bursts, including those serviced by the write queue
system.mem_ctrls.writeBursts                      284                       # Number of DRAM write bursts, including those merged in the write queue
system.mem_ctrls.bytesReadDRAM               12762176                       # Total number of bytes read from DRAM
system.mem_ctrls.bytesReadWrQ                    1408                       # Total number of bytes read from write queue
system.mem_ctrls.bytesWritten                   17408                       # Total number of bytes written to DRAM
system.mem_ctrls.bytesReadSys                12763584                       # Total read bytes from the system interface side
system.mem_ctrls.bytesWrittenSys                18176                       # Total written bytes from the system interface side
system.mem_ctrls.servicedByWrQ                     22                       # Number of DRAM read bursts serviced by the write queue
system.mem_ctrls.mergedWrBursts                     4                       # Number of DRAM write bursts merged with an existing one
system.mem_ctrls.neitherReadNorWriteReqs            0                       # Number of requests that are neither read nor write
system.mem_ctrls.perBankRdBursts::0             12134                       # Per bank write bursts
system.mem_ctrls.perBankRdBursts::1             12147                       # Per bank write bursts
system.mem_ctrls.perBankRdBursts::2             12201                       # Per bank write bursts
system.mem_ctrls.perBankRdBursts::3             12579                       # Per bank write bursts
system.mem_ctrls.perBankRdBursts::4             12898                       # Per bank write bursts
system.mem_ctrls.perBankRdBursts::5             12583                       # Per bank write bursts
system.mem_ctrls.perBankRdBursts::6             12386                       # Per bank write bursts
system.mem_ctrls.perBankRdBursts::7             12686                       # Per bank write bursts
system.mem_ctrls.perBankRdBursts::8             12728                       # Per bank write bursts
system.mem_ctrls.perBankRdBursts::9             12310                       # Per bank write bursts
system.mem_ctrls.perBankRdBursts::10            12460                       # Per bank write bursts
system.mem_ctrls.perBankRdBursts::11            12460                       # Per bank write bursts
system.mem_ctrls.perBankRdBursts::12            12571                       # Per bank write bursts
system.mem_ctrls.perBankRdBursts::13            12290                       # Per bank write bursts
system.mem_ctrls.perBankRdBursts::14            12507                       # Per bank write bursts
system.mem_ctrls.perBankRdBursts::15            12469                       # Per bank write bursts
system.mem_ctrls.perBankWrBursts::0                11                       # Per bank write bursts
system.mem_ctrls.perBankWrBursts::1                 0                       # Per bank write bursts
system.mem_ctrls.perBankWrBursts::2                 0                       # Per bank write bursts
system.mem_ctrls.perBankWrBursts::3                78                       # Per bank write bursts
system.mem_ctrls.perBankWrBursts::4                 9                       # Per bank write bursts
system.mem_ctrls.perBankWrBursts::5                 0                       # Per bank write bursts
system.mem_ctrls.perBankWrBursts::6                 0                       # Per bank write bursts
system.mem_ctrls.perBankWrBursts::7                 0                       # Per bank write bursts
system.mem_ctrls.perBankWrBursts::8                 0                       # Per bank write bursts
system.mem_ctrls.perBankWrBursts::9                 0                       # Per bank write bursts
system.mem_ctrls.perBankWrBursts::10               16                       # Per bank write bursts
system.mem_ctrls.perBankWrBursts::11                0                       # Per bank write bursts
system.mem_ctrls.perBankWrBursts::12                0                       # Per bank write bursts
system.mem_ctrls.perBankWrBursts::13                8                       # Per bank write bursts
system.mem_ctrls.perBankWrBursts::14               22                       # Per bank write bursts
system.mem_ctrls.perBankWrBursts::15              128                       # Per bank write bursts
system.mem_ctrls.numRdRetry                         0                       # Number of times read queue was full causing retry
system.mem_ctrls.numWrRetry                         0                       # Number of times write queue was full causing retry
system.mem_ctrls.totGap                   15267336000                       # Total gap between requests
system.mem_ctrls.readPktSize::0                     0                       # Read request sizes (log2)
system.mem_ctrls.readPktSize::1                     0                       # Read request sizes (log2)
system.mem_ctrls.readPktSize::2                     0                       # Read request sizes (log2)
system.mem_ctrls.readPktSize::3                     0                       # Read request sizes (log2)
system.mem_ctrls.readPktSize::4                     0                       # Read request sizes (log2)
system.mem_ctrls.readPktSize::5                     0                       # Read request sizes (log2)
system.mem_ctrls.readPktSize::6                199431                       # Read request sizes (log2)
system.mem_ctrls.writePktSize::0                    0                       # Write request sizes (log2)
system.mem_ctrls.writePktSize::1                    0                       # Write request sizes (log2)
system.mem_ctrls.writePktSize::2                    0                       # Write request sizes (log2)
system.mem_ctrls.writePktSize::3                    0                       # Write request sizes (log2)
system.mem_ctrls.writePktSize::4                    0                       # Write request sizes (log2)
system.mem_ctrls.writePktSize::5                    0                       # Write request sizes (log2)
system.mem_ctrls.writePktSize::6                  284                       # Write request sizes (log2)
system.mem_ctrls.rdQLenPdf::0                  150632                       # What read queue length does an incoming req see
system.mem_ctrls.rdQLenPdf::1                   45795                       # What read queue length does an incoming req see
system.mem_ctrls.rdQLenPdf::2                    2959                       # What read queue length does an incoming req see
system.mem_ctrls.rdQLenPdf::3                      23                       # What read queue length does an incoming req see
system.mem_ctrls.rdQLenPdf::4                       0                       # What read queue length does an incoming req see
system.mem_ctrls.rdQLenPdf::5                       0                       # What read queue length does an incoming req see
system.mem_ctrls.rdQLenPdf::6                       0                       # What read queue length does an incoming req see
system.mem_ctrls.rdQLenPdf::7                       0                       # What read queue length does an incoming req see
system.mem_ctrls.rdQLenPdf::8                       0                       # What read queue length does an incoming req see
system.mem_ctrls.rdQLenPdf::9                       0                       # What read queue length does an incoming req see
system.mem_ctrls.rdQLenPdf::10                      0                       # What read queue length does an incoming req see
system.mem_ctrls.rdQLenPdf::11                      0                       # What read queue length does an incoming req see
system.mem_ctrls.rdQLenPdf::12                      0                       # What read queue length does an incoming req see
system.mem_ctrls.rdQLenPdf::13                      0                       # What read queue length does an incoming req see
system.mem_ctrls.rdQLenPdf::14                      0                       # What read queue length does an incoming req see
system.mem_ctrls.rdQLenPdf::15                      0                       # What read queue length does an incoming req see
system.mem_ctrls.rdQLenPdf::16                      0                       # What read queue length does an incoming req see
system.mem_ctrls.rdQLenPdf::17                      0                       # What read queue length does an incoming req see
system.mem_ctrls.rdQLenPdf::18                      0                       # What read queue length does an incoming req see
system.mem_ctrls.rdQLenPdf::19                      0                       # What read queue length does an incoming req see
system.mem_ctrls.rdQLenPdf::20                      0                       # What read queue length does an incoming req see
system.mem_ctrls.rdQLenPdf::21                      0                       # What read queue length does an incoming req see
system.mem_ctrls.rdQLenPdf::22                      0                       # What read queue length does an incoming req see
system.mem_ctrls.rdQLenPdf::23                      0                       # What read queue length does an incoming req see
system.mem_ctrls.rdQLenPdf::24                      0                       # What read queue length does an incoming req see
system.mem_ctrls.rdQLenPdf::25                      0                       # What read queue length does an incoming req see
system.mem_ctrls.rdQLenPdf::26                      0                       # What read queue length does an incoming req see
system.mem_ctrls.rdQLenPdf::27                      0                       # What read queue length does an incoming req see
system.mem_ctrls.rdQLenPdf::28                      0                       # What read queue length does an incoming req see
system.mem_ctrls.rdQLenPdf::29                      0                       # What read queue length does an incoming req see
system.mem_ctrls.rdQLenPdf::30                      0                       # What read queue length does an incoming req see
system.mem_ctrls.rdQLenPdf::31                      0                       # What read queue length does an incoming req see
system.mem_ctrls.wrQLenPdf::0                       0                       # What write queue length does an incoming req see
system.mem_ctrls.wrQLenPdf::1                       0                       # What write queue length does an incoming req see
system.mem_ctrls.wrQLenPdf::2                       0                       # What write queue length does an incoming req see
system.mem_ctrls.wrQLenPdf::3                       0                       # What write queue length does an incoming req see
system.mem_ctrls.wrQLenPdf::4                       0                       # What write queue length does an incoming req see
system.mem_ctrls.wrQLenPdf::5                       0                       # What write queue length does an incoming req see
system.mem_ctrls.wrQLenPdf::6                       0                       # What write queue length does an incoming req see
system.mem_ctrls.wrQLenPdf::7                       0                       # What write queue length does an incoming req see
system.mem_ctrls.wrQLenPdf::8                       0                       # What write queue length does an incoming req see
system.mem_ctrls.wrQLenPdf::9                       0                       # What write queue length does an incoming req see
system.mem_ctrls.wrQLenPdf::10                      0                       # What write queue length does an incoming req see
system.mem_ctrls.wrQLenPdf::11                      0                       # What write queue length does an incoming req see
system.mem_ctrls.wrQLenPdf::12                      0                       # What write queue length does an incoming req see
system.mem_ctrls.wrQLenPdf::13                      0                       # What write queue length does an incoming req see
system.mem_ctrls.wrQLenPdf::14                      0                       # What write queue length does an incoming req see
system.mem_ctrls.wrQLenPdf::15                      0                       # What write queue length does an incoming req see
system.mem_ctrls.wrQLenPdf::16                      0                       # What write queue length does an incoming req see
system.mem_ctrls.wrQLenPdf::17                     15                       # What write queue length does an incoming req see
system.mem_ctrls.wrQLenPdf::18                     18                       # What write queue length does an incoming req see
system.mem_ctrls.wrQLenPdf::19                     18                       # What write queue length does an incoming req see
system.mem_ctrls.wrQLenPdf::20                     18                       # What write queue length does an incoming req see
system.mem_ctrls.wrQLenPdf::21                     18                       # What write queue length does an incoming req see
system.mem_ctrls.wrQLenPdf::22                     18                       # What write queue length does an incoming req see
system.mem_ctrls.wrQLenPdf::23                     18                       # What write queue length does an incoming req see
system.mem_ctrls.wrQLenPdf::24                     18                       # What write queue length does an incoming req see
system.mem_ctrls.wrQLenPdf::25                     18                       # What write queue length does an incoming req see
system.mem_ctrls.wrQLenPdf::26                     17                       # What write queue length does an incoming req see
system.mem_ctrls.wrQLenPdf::27                     17                       # What write queue length does an incoming req see
system.mem_ctrls.wrQLenPdf::28                     17                       # What write queue length does an incoming req see
system.mem_ctrls.wrQLenPdf::29                     17                       # What write queue length does an incoming req see
system.mem_ctrls.wrQLenPdf::30                     17                       # What write queue length does an incoming req see
system.mem_ctrls.wrQLenPdf::31                     17                       # What write queue length does an incoming req see
system.mem_ctrls.wrQLenPdf::32                     19                       # What write queue length does an incoming req see
system.mem_ctrls.wrQLenPdf::33                      0                       # What write queue length does an incoming req see
system.mem_ctrls.wrQLenPdf::34                      0                       # What write queue length does an incoming req see
system.mem_ctrls.wrQLenPdf::35                      0                       # What write queue length does an incoming req see
system.mem_ctrls.wrQLenPdf::36                      0                       # What write queue length does an incoming req see
system.mem_ctrls.wrQLenPdf::37                      0                       # What write queue length does an incoming req see
system.mem_ctrls.wrQLenPdf::38                      0                       # What write queue length does an incoming req see
system.mem_ctrls.wrQLenPdf::39                      0                       # What write queue length does an incoming req see
system.mem_ctrls.wrQLenPdf::40                      0                       # What write queue length does an incoming req see
system.mem_ctrls.wrQLenPdf::41                      0                       # What write queue length does an incoming req see
system.mem_ctrls.wrQLenPdf::42                      0                       # What write queue length does an incoming req see
system.mem_ctrls.wrQLenPdf::43                      0                       # What write queue length does an incoming req see
system.mem_ctrls.wrQLenPdf::44                      0                       # What write queue length does an incoming req see
system.mem_ctrls.wrQLenPdf::45                      0                       # What write queue length does an incoming req see
system.mem_ctrls.wrQLenPdf::46                      0                       # What write queue length does an incoming req see
system.mem_ctrls.wrQLenPdf::47                      0                       # What write queue length does an incoming req see
system.mem_ctrls.wrQLenPdf::48                      0                       # What write queue length does an incoming req see
system.mem_ctrls.wrQLenPdf::49                      0                       # What write queue length does an incoming req see
system.mem_ctrls.wrQLenPdf::50                      0                       # What write queue length does an incoming req see
system.mem_ctrls.wrQLenPdf::51                      0                       # What write queue length does an incoming req see
system.mem_ctrls.wrQLenPdf::52                      0                       # What write queue length does an incoming req see
system.mem_ctrls.wrQLenPdf::53                      0                       # What write queue length does an incoming req see
system.mem_ctrls.wrQLenPdf::54                      0                       # What write queue length does an incoming req see
system.mem_ctrls.wrQLenPdf::55                      0                       # What write queue length does an incoming req see
system.mem_ctrls.wrQLenPdf::56                      0                       # What write queue length does an incoming req see
system.mem_ctrls.wrQLenPdf::57                      0                       # What write queue length does an incoming req see
system.mem_ctrls.wrQLenPdf::58                      0                       # What write queue length does an incoming req see
system.mem_ctrls.wrQLenPdf::59                      0                       # What write queue length does an incoming req see
system.mem_ctrls.wrQLenPdf::60                      0                       # What write queue length does an incoming req see
system.mem_ctrls.wrQLenPdf::61                      0                       # What write queue length does an incoming req see
system.mem_ctrls.wrQLenPdf::62                      0                       # What write queue length does an incoming req see
system.mem_ctrls.wrQLenPdf::63                      0                       # What write queue length does an incoming req see
system.mem_ctrls.bytesPerActivate::samples        97566                       # Bytes accessed per row activation
system.mem_ctrls.bytesPerActivate::mean    130.976775                       # Bytes accessed per row activation
system.mem_ctrls.bytesPerActivate::gmean   112.593283                       # Bytes accessed per row activation
system.mem_ctrls.bytesPerActivate::stdev    77.626811                       # Bytes accessed per row activation
system.mem_ctrls.bytesPerActivate::0-127        40344     41.35%     41.35% # Bytes accessed per row activation
system.mem_ctrls.bytesPerActivate::128-255        45573     46.71%     88.06% # Bytes accessed per row activation
system.mem_ctrls.bytesPerActivate::256-383        10069     10.32%     98.38% # Bytes accessed per row activation
system.mem_ctrls.bytesPerActivate::384-511         1402      1.44%     99.82% # Bytes accessed per row activation
system.mem_ctrls.bytesPerActivate::512-639          151      0.15%     99.97% # Bytes accessed per row activation
system.mem_ctrls.bytesPerActivate::640-767           14      0.01%     99.99% # Bytes accessed per row activation
system.mem_ctrls.bytesPerActivate::768-895            5      0.01%     99.99% # Bytes accessed per row activation
system.mem_ctrls.bytesPerActivate::896-1023            1      0.00%     99.99% # Bytes accessed per row activation
system.mem_ctrls.bytesPerActivate::1024-1151            7      0.01%    100.00% # Bytes accessed per row activation
system.mem_ctrls.bytesPerActivate::total        97566                       # Bytes accessed per row activation
system.mem_ctrls.rdPerTurnAround::samples           17                       # Reads before turning the bus around for writes
system.mem_ctrls.rdPerTurnAround::mean   11251.823529                       # Reads before turning the bus around for writes
system.mem_ctrls.rdPerTurnAround::gmean  11042.645443                       # Reads before turning the bus around for writes
system.mem_ctrls.rdPerTurnAround::stdev   2271.654497                       # Reads before turning the bus around for writes
system.mem_ctrls.rdPerTurnAround::7680-8191            2     11.76%     11.76% # Reads before turning the bus around for writes
system.mem_ctrls.rdPerTurnAround::8704-9215            1      5.88%     17.65% # Reads before turning the bus around for writes
system.mem_ctrls.rdPerTurnAround::9728-10239            1      5.88%     23.53% # Reads before turning the bus around for writes
system.mem_ctrls.rdPerTurnAround::10240-10751            3     17.65%     41.18% # Reads before turning the bus around for writes
system.mem_ctrls.rdPerTurnAround::10752-11263            5     29.41%     70.59% # Reads before turning the bus around for writes
system.mem_ctrls.rdPerTurnAround::11264-11775            1      5.88%     76.47% # Reads before turning the bus around for writes
system.mem_ctrls.rdPerTurnAround::13824-14335            2     11.76%     88.24% # Reads before turning the bus around for writes
system.mem_ctrls.rdPerTurnAround::14336-14847            1      5.88%     94.12% # Reads before turning the bus around for writes
system.mem_ctrls.rdPerTurnAround::15872-16383            1      5.88%    100.00% # Reads before turning the bus around for writes
system.mem_ctrls.rdPerTurnAround::total            17                       # Reads before turning the bus around for writes
system.mem_ctrls.wrPerTurnAround::samples           17                       # Writes before turning the bus around for reads
system.mem_ctrls.wrPerTurnAround::mean             16                       # Writes before turning the bus around for reads
system.mem_ctrls.wrPerTurnAround::gmean     16.000000                       # Writes before turning the bus around for reads
system.mem_ctrls.wrPerTurnAround::16               17    100.00%    100.00% # Writes before turning the bus around for reads
system.mem_ctrls.wrPerTurnAround::total            17                       # Writes before turning the bus around for reads
system.mem_ctrls.totQLat                   4787153250                       # Total ticks spent queuing
system.mem_ctrls.totMemAccLat              8526072000                       # Total ticks spent from burst creation until serviced by the DRAM
system.mem_ctrls.totBusLat                  997045000                       # Total ticks spent in databus transfers
system.mem_ctrls.avgQLat                     24006.71                       # Average queueing delay per DRAM burst
system.mem_ctrls.avgBusLat                    5000.00                       # Average bus latency per DRAM burst
system.mem_ctrls.avgMemAccLat                42756.71                       # Average memory access latency per DRAM burst
system.mem_ctrls.avgRdBW                       835.91                       # Average DRAM read bandwidth in MiByte/s
system.mem_ctrls.avgWrBW                         1.14                       # Average achieved write bandwidth in MiByte/s
system.mem_ctrls.avgRdBWSys                    836.01                       # Average system read bandwidth in MiByte/s
system.mem_ctrls.avgWrBWSys                      1.19                       # Average system write bandwidth in MiByte/s
system.mem_ctrls.peakBW                      12800.00                       # Theoretical peak bandwidth in MiByte/s
system.mem_ctrls.busUtil                         6.54                       # Data bus utilization in percentage
system.mem_ctrls.busUtilRead                     6.53                       # Data bus utilization in percentage for reads
system.mem_ctrls.busUtilWrite                    0.01                       # Data bus utilization in percentage for writes
system.mem_ctrls.avgRdQLen                       1.32                       # Average read queue length when enqueuing
system.mem_ctrls.avgWrQLen                      25.42                       # Average write queue length when enqueuing
system.mem_ctrls.readRowHits                   101873                       # Number of row buffer hits during reads
system.mem_ctrls.writeRowHits                     236                       # Number of row buffer hits during writes
system.mem_ctrls.readRowHitRate                 51.09                       # Row buffer hit rate for reads
system.mem_ctrls.writeRowHitRate                84.29                       # Row buffer hit rate for writes
system.mem_ctrls.avgGap                      76445.62                       # Average gap between requests
system.mem_ctrls.pageHitRate                    51.13                       # Row buffer hit rate, read and write combined
system.mem_ctrls_0.actEnergy                347582340                       # Energy for activate commands per rank (pJ)
system.mem_ctrls_0.preEnergy                184721625                       # Energy for precharge commands per rank (pJ)
system.mem_ctrls_0.readEnergy               711243960                       # Energy for read commands per rank (pJ)
system.mem_ctrls_0.writeEnergy                 511560                       # Energy for write commands per rank (pJ)
system.mem_ctrls_0.refreshEnergy         1204694400.000000                       # Energy for refresh commands per rank (pJ)
system.mem_ctrls_0.actBackEnergy           1649870130                       # Energy for active background per rank (pJ)
system.mem_ctrls_0.preBackEnergy             24551520                       # Energy for precharge background per rank (pJ)
system.mem_ctrls_0.actPowerDownEnergy      5156832750                       # Energy for active power-down per rank (pJ)
system.mem_ctrls_0.prePowerDownEnergy       106148160                       # Energy for precharge power-down per rank (pJ)
system.mem_ctrls_0.selfRefreshEnergy                0                       # Energy for self refresh per rank (pJ)
system.mem_ctrls_0.totalEnergy             9386156445                       # Total energy per rank (pJ)
system.mem_ctrls_0.averagePower            614.786460                       # Core power per rank (mW)
system.mem_ctrls_0.totalIdleTime          11585834000                       # Total Idle time Per DRAM Rank
system.mem_ctrls_0.memoryStateTime::IDLE      9636500                       # Time in different power states
system.mem_ctrls_0.memoryStateTime::REF     509600000                       # Time in different power states
system.mem_ctrls_0.memoryStateTime::SREF            0                       # Time in different power states
system.mem_ctrls_0.memoryStateTime::PRE_PDN    276428500                       # Time in different power states
system.mem_ctrls_0.memoryStateTime::ACT    3162254250                       # Time in different power states
system.mem_ctrls_0.memoryStateTime::ACT_PDN  11309424875                       # Time in different power states
system.mem_ctrls_1.actEnergy                349081740                       # Energy for activate commands per rank (pJ)
system.mem_ctrls_1.preEnergy                185541345                       # Energy for precharge commands per rank (pJ)
system.mem_ctrls_1.readEnergy               712536300                       # Energy for read commands per rank (pJ)
system.mem_ctrls_1.writeEnergy                 908280                       # Energy for write commands per rank (pJ)
system.mem_ctrls_1.refreshEnergy         1205309040.000000                       # Energy for refresh commands per rank (pJ)
system.mem_ctrls_1.actBackEnergy           1652093700                       # Energy for active background per rank (pJ)
system.mem_ctrls_1.preBackEnergy             24581760                       # Energy for precharge background per rank (pJ)
system.mem_ctrls_1.actPowerDownEnergy      5143535220                       # Energy for active power-down per rank (pJ)
system.mem_ctrls_1.prePowerDownEnergy       115443360                       # Energy for precharge power-down per rank (pJ)
system.mem_ctrls_1.selfRefreshEnergy                0                       # Energy for self refresh per rank (pJ)
system.mem_ctrls_1.totalEnergy             9389030745                       # Total energy per rank (pJ)
system.mem_ctrls_1.averagePower            614.974724                       # Core power per rank (mW)
system.mem_ctrls_1.totalIdleTime          11580534250                       # Total Idle time Per DRAM Rank
system.mem_ctrls_1.memoryStateTime::IDLE      9768000                       # Time in different power states
system.mem_ctrls_1.memoryStateTime::REF     509860000                       # Time in different power states
system.mem_ctrls_1.memoryStateTime::SREF            0                       # Time in different power states
system.mem_ctrls_1.memoryStateTime::PRE_PDN    300828000                       # Time in different power states
system.mem_ctrls_1.memoryStateTime::ACT    3166866500                       # Time in different power states
system.mem_ctrls_1.memoryStateTime::ACT_PDN  11280021625                       # Time in different power states
system.pwrStateResidencyTicks::UNDEFINED  15267344125                       # Cumulative time (in ticks) in various power states
system.cpu0.branchPred.lookups                1292345                       # Number of BP lookups
system.cpu0.branchPred.condPredicted          1292345                       # Number of conditional branches predicted
system.cpu0.branchPred.condIncorrect            48061                       # Number of conditional branches incorrect
system.cpu0.branchPred.BTBLookups              983901                       # Number of BTB lookups
system.cpu0.branchPred.BTBHits                      0                       # Number of BTB hits
system.cpu0.branchPred.BTBCorrect                   0                       # Number of correct BTB predictions (this stat may not work properly.
system.cpu0.branchPred.BTBHitPct             0.000000                       # BTB Hit Percentage
system.cpu0.branchPred.usedRAS                  28562                       # Number of times the RAS was used to get a target.
system.cpu0.branchPred.RASInCorrect              4371                       # Number of incorrect RAS predictions.
system.cpu0.branchPred.indirectLookups         983901                       # Number of indirect predictor lookups.
system.cpu0.branchPred.indirectHits            561978                       # Number of indirect target hits.
system.cpu0.branchPred.indirectMisses          421923                       # Number of indirect misses.
system.cpu0.branchPredindirectMispredicted        14269                       # Number of mispredicted indirect branches.
system.cpu_voltage_domain.voltage                   1                       # Voltage in Volts
system.cpu_clk_domain.clock                       500                       # Clock period in ticks
system.cpu0.dtb.walker.pwrStateResidencyTicks::UNDEFINED  15267344125                       # Cumulative time (in ticks) in various power states
system.cpu0.dtb.rdAccesses                     595096                       # TLB accesses on read requests
system.cpu0.dtb.wrAccesses                      31648                       # TLB accesses on write requests
system.cpu0.dtb.rdMisses                       133320                       # TLB misses on read requests
system.cpu0.dtb.wrMisses                          573                       # TLB misses on write requests
system.cpu0.apic_clk_domain.clock                8000                       # Clock period in ticks
system.cpu0.interrupts.pwrStateResidencyTicks::UNDEFINED  15267344125                       # Cumulative time (in ticks) in various power states
system.cpu0.itb.walker.pwrStateResidencyTicks::UNDEFINED  15267344125                       # Cumulative time (in ticks) in various power states
system.cpu0.itb.rdAccesses                          0                       # TLB accesses on read requests
system.cpu0.itb.wrAccesses                    1104591                       # TLB accesses on write requests
system.cpu0.itb.rdMisses                            0                       # TLB misses on read requests
system.cpu0.itb.wrMisses                         2257                       # TLB misses on write requests
system.cpu0.workload.numSyscalls                    0                       # Number of system calls
system.cpu0.pwrStateResidencyTicks::ON    15267344125                       # Cumulative time (in ticks) in various power states
system.cpu0.numCycles                        30534688                       # number of cpu cycles simulated
system.cpu0.numWorkItemsStarted                     0                       # number of work items this cpu started
system.cpu0.numWorkItemsCompleted                   0                       # number of work items this cpu completed
system.cpu0.fetch.icacheStallCycles           1126446                       # Number of cycles fetch is stalled on an Icache miss
system.cpu0.fetch.Insts                       3676178                       # Number of instructions fetch has processed
system.cpu0.fetch.Branches                    1292345                       # Number of branches that fetch encountered
system.cpu0.fetch.predictedBranches            590540                       # Number of branches that fetch has predicted taken
system.cpu0.fetch.Cycles                     29302514                       # Number of cycles fetch has run and was not squashing or blocked
system.cpu0.fetch.SquashCycles                  97600                       # Number of cycles fetch has spent squashing
system.cpu0.fetch.TlbCycles                      1523                       # Number of cycles fetch has spent waiting for tlb
system.cpu0.fetch.MiscStallCycles                 500                       # Number of cycles fetch has spent waiting on interrupts, or bad addresses, or out of MSHRs
system.cpu0.fetch.PendingTrapStallCycles        21677                       # Number of stall cycles due to pending traps
system.cpu0.fetch.CacheLines                  1102334                       # Number of cache lines fetched
system.cpu0.fetch.IcacheSquashes                 4634                       # Number of outstanding Icache misses that were squashed
system.cpu0.fetch.ItlbSquashes                      1                       # Number of outstanding ITLB misses that were squashed
system.cpu0.fetch.rateDist::samples          30501460                       # Number of instructions fetched each cycle (Total)
system.cpu0.fetch.rateDist::mean             0.241855                       # Number of instructions fetched each cycle (Total)
system.cpu0.fetch.rateDist::stdev            1.238802                       # Number of instructions fetched each cycle (Total)
system.cpu0.fetch.rateDist::underflows              0      0.00%      0.00% # Number of instructions fetched each cycle (Total)
system.cpu0.fetch.rateDist::0                29042242     95.22%     95.22% # Number of instructions fetched each cycle (Total)
system.cpu0.fetch.rateDist::1                   15255      0.05%     95.27% # Number of instructions fetched each cycle (Total)
system.cpu0.fetch.rateDist::2                  567507      1.86%     97.13% # Number of instructions fetched each cycle (Total)
system.cpu0.fetch.rateDist::3                   16153      0.05%     97.18% # Number of instructions fetched each cycle (Total)
system.cpu0.fetch.rateDist::4                  107179      0.35%     97.53% # Number of instructions fetched each cycle (Total)
system.cpu0.fetch.rateDist::5                   39646      0.13%     97.66% # Number of instructions fetched each cycle (Total)
system.cpu0.fetch.rateDist::6                   70897      0.23%     97.89% # Number of instructions fetched each cycle (Total)
system.cpu0.fetch.rateDist::7                   14769      0.05%     97.94% # Number of instructions fetched each cycle (Total)
system.cpu0.fetch.rateDist::8                  627812      2.06%    100.00% # Number of instructions fetched each cycle (Total)
system.cpu0.fetch.rateDist::overflows               0      0.00%    100.00% # Number of instructions fetched each cycle (Total)
system.cpu0.fetch.rateDist::min_value               0                       # Number of instructions fetched each cycle (Total)
system.cpu0.fetch.rateDist::max_value               8                       # Number of instructions fetched each cycle (Total)
system.cpu0.fetch.rateDist::total            30501460                       # Number of instructions fetched each cycle (Total)
system.cpu0.fetch.branchRate                 0.042324                       # Number of branch fetches per cycle
system.cpu0.fetch.rate                       0.120394                       # Number of inst fetches per cycle
system.cpu0.decode.IdleCycles                  527094                       # Number of cycles decode is idle
system.cpu0.decode.BlockedCycles             28995750                       # Number of cycles decode is blocked
system.cpu0.decode.RunCycles                   659337                       # Number of cycles decode is running
system.cpu0.decode.UnblockCycles               270479                       # Number of cycles decode is unblocking
system.cpu0.decode.SquashCycles                 48800                       # Number of cycles decode is squashing
system.cpu0.decode.DecodedInsts               6036867                       # Number of instructions handled by decode
system.cpu0.rename.SquashCycles                 48800                       # Number of cycles rename is squashing
system.cpu0.rename.IdleCycles                  601028                       # Number of cycles rename is idle
system.cpu0.rename.BlockCycles               27934059                       # Number of cycles rename is blocking
system.cpu0.rename.serializeStallCycles          8814                       # count of cycles rename stalled for serializing inst
system.cpu0.rename.RunCycles                   784175                       # Number of cycles rename is running
system.cpu0.rename.UnblockCycles              1124584                       # Number of cycles rename is unblocking
system.cpu0.rename.RenamedInsts               5808459                       # Number of instructions processed by rename
system.cpu0.rename.ROBFullEvents                40492                       # Number of times rename has blocked due to ROB full
system.cpu0.rename.IQFullEvents                938062                       # Number of times rename has blocked due to IQ full
system.cpu0.rename.LQFullEvents                134884                       # Number of times rename has blocked due to LQ full
system.cpu0.rename.SQFullEvents                   374                       # Number of times rename has blocked due to SQ full
system.cpu0.rename.RenamedOperands            6938885                       # Number of destination operands rename has renamed
system.cpu0.rename.RenameLookups             16284799                       # Number of register rename lookups that rename has made
system.cpu0.rename.int_rename_lookups         7517113                       # Number of integer rename lookups
system.cpu0.rename.fp_rename_lookups            25129                       # Number of floating rename lookups
system.cpu0.rename.CommittedMaps              2564907                       # Number of HB maps that are committed
system.cpu0.rename.UndoneMaps                 4374044                       # Number of HB maps that are undone due to squashing
system.cpu0.rename.serializingInsts               250                       # count of serializing insts renamed
system.cpu0.rename.tempSerializingInsts           283                       # count of temporary serializing insts renamed
system.cpu0.rename.skidInsts                  1761891                       # count of insts added to the skid buffer
system.cpu0.memDep0.insertedLoads             1071238                       # Number of loads inserted to the mem dependence unit.
system.cpu0.memDep0.insertedStores              46520                       # Number of stores inserted to the mem dependence unit.
system.cpu0.memDep0.conflictingLoads             3204                       # Number of conflicting loads.
system.cpu0.memDep0.conflictingStores            2729                       # Number of conflicting stores.
system.cpu0.iq.iqInstsAdded                   5548943                       # Number of instructions added to the IQ (excludes non-spec)
system.cpu0.iq.iqNonSpecInstsAdded               2750                       # Number of non-speculative instructions added to the IQ
system.cpu0.iq.iqInstsIssued                  3939664                       # Number of instructions issued
system.cpu0.iq.iqSquashedInstsIssued             3731                       # Number of squashed instructions issued
system.cpu0.iq.iqSquashedInstsExamined        3412105                       # Number of squashed instructions iterated over during squash; mainly for profiling
system.cpu0.iq.iqSquashedOperandsExamined      7419436                       # Number of squashed operands that are examined and possibly removed from graph
system.cpu0.iq.iqSquashedNonSpecRemoved          2750                       # Number of squashed non-spec instructions that were removed
system.cpu0.iq.issued_per_cycle::samples     30501460                       # Number of insts issued each cycle
system.cpu0.iq.issued_per_cycle::mean        0.129163                       # Number of insts issued each cycle
system.cpu0.iq.issued_per_cycle::stdev       0.643158                       # Number of insts issued each cycle
system.cpu0.iq.issued_per_cycle::underflows            0      0.00%      0.00% # Number of insts issued each cycle
system.cpu0.iq.issued_per_cycle::0           28806630     94.44%     94.44% # Number of insts issued each cycle
system.cpu0.iq.issued_per_cycle::1             711158      2.33%     96.78% # Number of insts issued each cycle
system.cpu0.iq.issued_per_cycle::2             364845      1.20%     97.97% # Number of insts issued each cycle
system.cpu0.iq.issued_per_cycle::3             240278      0.79%     98.76% # Number of insts issued each cycle
system.cpu0.iq.issued_per_cycle::4             239602      0.79%     99.54% # Number of insts issued each cycle
system.cpu0.iq.issued_per_cycle::5              57038      0.19%     99.73% # Number of insts issued each cycle
system.cpu0.iq.issued_per_cycle::6              52194      0.17%     99.90% # Number of insts issued each cycle
system.cpu0.iq.issued_per_cycle::7              16500      0.05%     99.96% # Number of insts issued each cycle
system.cpu0.iq.issued_per_cycle::8              13215      0.04%    100.00% # Number of insts issued each cycle
system.cpu0.iq.issued_per_cycle::overflows            0      0.00%    100.00% # Number of insts issued each cycle
system.cpu0.iq.issued_per_cycle::min_value            0                       # Number of insts issued each cycle
system.cpu0.iq.issued_per_cycle::max_value            8                       # Number of insts issued each cycle
system.cpu0.iq.issued_per_cycle::total       30501460                       # Number of insts issued each cycle
system.cpu0.iq.fu_full::No_OpClass                  0      0.00%      0.00% # attempts to use FU when none available
system.cpu0.iq.fu_full::IntAlu                   6613     66.59%     66.59% # attempts to use FU when none available
system.cpu0.iq.fu_full::IntMult                     0      0.00%     66.59% # attempts to use FU when none available
system.cpu0.iq.fu_full::IntDiv                      0      0.00%     66.59% # attempts to use FU when none available
system.cpu0.iq.fu_full::FloatAdd                  694      6.99%     73.58% # attempts to use FU when none available
system.cpu0.iq.fu_full::FloatCmp                    0      0.00%     73.58% # attempts to use FU when none available
system.cpu0.iq.fu_full::FloatCvt                    0      0.00%     73.58% # attempts to use FU when none available
system.cpu0.iq.fu_full::FloatMult                   0      0.00%     73.58% # attempts to use FU when none available
system.cpu0.iq.fu_full::FloatMultAcc                0      0.00%     73.58% # attempts to use FU when none available
system.cpu0.iq.fu_full::FloatDiv                    0      0.00%     73.58% # attempts to use FU when none available
system.cpu0.iq.fu_full::FloatMisc                   0      0.00%     73.58% # attempts to use FU when none available
system.cpu0.iq.fu_full::FloatSqrt                   0      0.00%     73.58% # attempts to use FU when none available
system.cpu0.iq.fu_full::SimdAdd                     0      0.00%     73.58% # attempts to use FU when none available
system.cpu0.iq.fu_full::SimdAddAcc                  0      0.00%     73.58% # attempts to use FU when none available
system.cpu0.iq.fu_full::SimdAlu                     0      0.00%     73.58% # attempts to use FU when none available
system.cpu0.iq.fu_full::SimdCmp                     0      0.00%     73.58% # attempts to use FU when none available
system.cpu0.iq.fu_full::SimdCvt                     0      0.00%     73.58% # attempts to use FU when none available
system.cpu0.iq.fu_full::SimdMisc                    0      0.00%     73.58% # attempts to use FU when none available
system.cpu0.iq.fu_full::SimdMult                    0      0.00%     73.58% # attempts to use FU when none available
system.cpu0.iq.fu_full::SimdMultAcc                 0      0.00%     73.58% # attempts to use FU when none available
system.cpu0.iq.fu_full::SimdShift                   0      0.00%     73.58% # attempts to use FU when none available
system.cpu0.iq.fu_full::SimdShiftAcc                0      0.00%     73.58% # attempts to use FU when none available
system.cpu0.iq.fu_full::SimdSqrt                    0      0.00%     73.58% # attempts to use FU when none available
system.cpu0.iq.fu_full::SimdFloatAdd                0      0.00%     73.58% # attempts to use FU when none available
system.cpu0.iq.fu_full::SimdFloatAlu                0      0.00%     73.58% # attempts to use FU when none available
system.cpu0.iq.fu_full::SimdFloatCmp                0      0.00%     73.58% # attempts to use FU when none available
system.cpu0.iq.fu_full::SimdFloatCvt                0      0.00%     73.58% # attempts to use FU when none available
system.cpu0.iq.fu_full::SimdFloatDiv                0      0.00%     73.58% # attempts to use FU when none available
system.cpu0.iq.fu_full::SimdFloatMisc               0      0.00%     73.58% # attempts to use FU when none available
system.cpu0.iq.fu_full::SimdFloatMult               0      0.00%     73.58% # attempts to use FU when none available
system.cpu0.iq.fu_full::SimdFloatMultAcc            0      0.00%     73.58% # attempts to use FU when none available
system.cpu0.iq.fu_full::SimdFloatSqrt               0      0.00%     73.58% # attempts to use FU when none available
system.cpu0.iq.fu_full::MemRead                  2302     23.18%     96.76% # attempts to use FU when none available
system.cpu0.iq.fu_full::MemWrite                  208      2.09%     98.85% # attempts to use FU when none available
system.cpu0.iq.fu_full::FloatMemRead               85      0.86%     99.71% # attempts to use FU when none available
system.cpu0.iq.fu_full::FloatMemWrite              29      0.29%    100.00% # attempts to use FU when none available
system.cpu0.iq.fu_full::IprAccess                   0      0.00%    100.00% # attempts to use FU when none available
system.cpu0.iq.fu_full::InstPrefetch                0      0.00%    100.00% # attempts to use FU when none available
system.cpu0.iq.FU_type_0::No_OpClass            10412      0.26%      0.26% # Type of FU issued
system.cpu0.iq.FU_type_0::IntAlu              3261318     82.78%     83.05% # Type of FU issued
system.cpu0.iq.FU_type_0::IntMult                 706      0.02%     83.06% # Type of FU issued
system.cpu0.iq.FU_type_0::IntDiv                 6175      0.16%     83.22% # Type of FU issued
system.cpu0.iq.FU_type_0::FloatAdd               8821      0.22%     83.44% # Type of FU issued
system.cpu0.iq.FU_type_0::FloatCmp                  0      0.00%     83.44% # Type of FU issued
system.cpu0.iq.FU_type_0::FloatCvt                  0      0.00%     83.44% # Type of FU issued
system.cpu0.iq.FU_type_0::FloatMult                 0      0.00%     83.44% # Type of FU issued
system.cpu0.iq.FU_type_0::FloatMultAcc              0      0.00%     83.44% # Type of FU issued
system.cpu0.iq.FU_type_0::FloatDiv                  0      0.00%     83.44% # Type of FU issued
system.cpu0.iq.FU_type_0::FloatMisc                 0      0.00%     83.44% # Type of FU issued
system.cpu0.iq.FU_type_0::FloatSqrt                 0      0.00%     83.44% # Type of FU issued
system.cpu0.iq.FU_type_0::SimdAdd                   0      0.00%     83.44% # Type of FU issued
system.cpu0.iq.FU_type_0::SimdAddAcc                0      0.00%     83.44% # Type of FU issued
system.cpu0.iq.FU_type_0::SimdAlu                   0      0.00%     83.44% # Type of FU issued
system.cpu0.iq.FU_type_0::SimdCmp                   0      0.00%     83.44% # Type of FU issued
system.cpu0.iq.FU_type_0::SimdCvt                   0      0.00%     83.44% # Type of FU issued
system.cpu0.iq.FU_type_0::SimdMisc                  0      0.00%     83.44% # Type of FU issued
system.cpu0.iq.FU_type_0::SimdMult                  0      0.00%     83.44% # Type of FU issued
system.cpu0.iq.FU_type_0::SimdMultAcc               0      0.00%     83.44% # Type of FU issued
system.cpu0.iq.FU_type_0::SimdShift                 0      0.00%     83.44% # Type of FU issued
system.cpu0.iq.FU_type_0::SimdShiftAcc              0      0.00%     83.44% # Type of FU issued
system.cpu0.iq.FU_type_0::SimdSqrt                  0      0.00%     83.44% # Type of FU issued
system.cpu0.iq.FU_type_0::SimdFloatAdd              0      0.00%     83.44% # Type of FU issued
system.cpu0.iq.FU_type_0::SimdFloatAlu              0      0.00%     83.44% # Type of FU issued
system.cpu0.iq.FU_type_0::SimdFloatCmp              0      0.00%     83.44% # Type of FU issued
system.cpu0.iq.FU_type_0::SimdFloatCvt              0      0.00%     83.44% # Type of FU issued
system.cpu0.iq.FU_type_0::SimdFloatDiv              0      0.00%     83.44% # Type of FU issued
system.cpu0.iq.FU_type_0::SimdFloatMisc             0      0.00%     83.44% # Type of FU issued
system.cpu0.iq.FU_type_0::SimdFloatMult             0      0.00%     83.44% # Type of FU issued
system.cpu0.iq.FU_type_0::SimdFloatMultAcc            0      0.00%     83.44% # Type of FU issued
system.cpu0.iq.FU_type_0::SimdFloatSqrt             0      0.00%     83.44% # Type of FU issued
system.cpu0.iq.FU_type_0::MemRead              616428     15.65%     99.09% # Type of FU issued
system.cpu0.iq.FU_type_0::MemWrite              34001      0.86%     99.95% # Type of FU issued
system.cpu0.iq.FU_type_0::FloatMemRead           1691      0.04%    100.00% # Type of FU issued
system.cpu0.iq.FU_type_0::FloatMemWrite           112      0.00%    100.00% # Type of FU issued
system.cpu0.iq.FU_type_0::IprAccess                 0      0.00%    100.00% # Type of FU issued
system.cpu0.iq.FU_type_0::InstPrefetch              0      0.00%    100.00% # Type of FU issued
system.cpu0.iq.FU_type_0::total               3939664                       # Type of FU issued
system.cpu0.iq.rate                          0.129023                       # Inst issue rate
system.cpu0.iq.fu_busy_cnt                       9931                       # FU busy when requested
system.cpu0.iq.fu_busy_rate                  0.002521                       # FU busy rate (busy events/executed inst)
system.cpu0.iq.int_inst_queue_reads          38372221                       # Number of integer instruction queue reads
system.cpu0.iq.int_inst_queue_writes          8941507                       # Number of integer instruction queue writes
system.cpu0.iq.int_inst_queue_wakeup_accesses      3797618                       # Number of integer instruction queue wakeup accesses
system.cpu0.iq.fp_inst_queue_reads              22229                       # Number of floating instruction queue reads
system.cpu0.iq.fp_inst_queue_writes             22294                       # Number of floating instruction queue writes
system.cpu0.iq.fp_inst_queue_wakeup_accesses         9657                       # Number of floating instruction queue wakeup accesses
system.cpu0.iq.vec_inst_queue_reads                 0                       # Number of vector instruction queue reads
system.cpu0.iq.vec_inst_queue_writes                0                       # Number of vector instruction queue writes
system.cpu0.iq.vec_inst_queue_wakeup_accesses            0                       # Number of vector instruction queue wakeup accesses
system.cpu0.iq.int_alu_accesses               3927740                       # Number of integer alu accesses
system.cpu0.iq.fp_alu_accesses                  11443                       # Number of floating point alu accesses
system.cpu0.iq.vec_alu_accesses                     0                       # Number of vector alu accesses
system.cpu0.iew.lsq.thread0.forwLoads            2650                       # Number of loads that had data forwarded from stores
system.cpu0.iew.lsq.thread0.invAddrLoads            0                       # Number of loads ignored due to an invalid address
system.cpu0.iew.lsq.thread0.squashedLoads       660094                       # Number of loads squashed
system.cpu0.iew.lsq.thread0.ignoredResponses           64                       # Number of memory responses ignored because the instruction is squashed
system.cpu0.iew.lsq.thread0.memOrderViolation            3                       # Number of memory ordering violations
system.cpu0.iew.lsq.thread0.squashedStores        28809                       # Number of stores squashed
system.cpu0.iew.lsq.thread0.invAddrSwpfs            0                       # Number of software prefetches ignored due to an invalid address
system.cpu0.iew.lsq.thread0.blockedLoads            0                       # Number of blocked loads due to partial load-store forwarding
system.cpu0.iew.lsq.thread0.rescheduledLoads           23                       # Number of loads that were rescheduled
system.cpu0.iew.lsq.thread0.cacheBlocked         1346                       # Number of times an access to memory failed due to the cache being blocked
system.cpu0.iew.iewIdleCycles                       0                       # Number of cycles IEW is idle
system.cpu0.iew.iewSquashCycles                 48800                       # Number of cycles IEW is squashing
system.cpu0.iew.iewBlockCycles               26445853                       # Number of cycles IEW is blocking
system.cpu0.iew.iewUnblockCycles               237717                       # Number of cycles IEW is unblocking
system.cpu0.iew.iewDispatchedInsts            5551693                       # Number of instructions dispatched to IQ
system.cpu0.iew.iewDispSquashedInsts             2812                       # Number of squashed instructions skipped by dispatch
system.cpu0.iew.iewDispLoadInsts              1071238                       # Number of dispatched load instructions
system.cpu0.iew.iewDispStoreInsts               46520                       # Number of dispatched store instructions
system.cpu0.iew.iewDispNonSpecInsts              1053                       # Number of dispatched non-speculative instructions
system.cpu0.iew.iewIQFullEvents                 14080                       # Number of times the IQ has become full, causing a stall
system.cpu0.iew.iewLSQFullEvents                41479                       # Number of times the LSQ has become full, causing a stall
system.cpu0.iew.memOrderViolationEvents             3                       # Number of memory order violations
system.cpu0.iew.predictedTakenIncorrect         27105                       # Number of branches that were predicted taken incorrectly
system.cpu0.iew.predictedNotTakenIncorrect        26087                       # Number of branches that were predicted not taken incorrectly
system.cpu0.iew.branchMispredicts               53192                       # Number of branch mispredicts detected at execute
system.cpu0.iew.iewExecutedInsts              3882338                       # Number of executed instructions
system.cpu0.iew.iewExecLoadInsts               594922                       # Number of load instructions executed
system.cpu0.iew.iewExecSquashedInsts            57326                       # Number of squashed instructions skipped in execute
system.cpu0.iew.exec_swp                            0                       # number of swp insts executed
system.cpu0.iew.exec_nop                            0                       # number of nop insts executed
system.cpu0.iew.exec_refs                      626567                       # number of memory reference insts executed
system.cpu0.iew.exec_branches                  474504                       # Number of branches executed
system.cpu0.iew.exec_stores                     31645                       # Number of stores executed
system.cpu0.iew.exec_rate                    0.127145                       # Inst execution rate
system.cpu0.iew.wb_sent                       3817644                       # cumulative count of insts sent to commit
system.cpu0.iew.wb_count                      3807275                       # cumulative count of insts written-back
system.cpu0.iew.wb_producers                  2777824                       # num instructions producing a value
system.cpu0.iew.wb_consumers                  4391685                       # num instructions consuming a value
system.cpu0.iew.wb_rate                      0.124687                       # insts written-back per cycle
system.cpu0.iew.wb_fanout                    0.632519                       # average fanout of values written-back
system.cpu0.commit.commitSquashedInsts        3412426                       # The number of squashed insts skipped by commit
system.cpu0.commit.branchMispredicts            48798                       # The number of times a branch was mispredicted
system.cpu0.commit.committed_per_cycle::samples     30027332                       # Number of insts commited each cycle
system.cpu0.commit.committed_per_cycle::mean     0.071257                       # Number of insts commited each cycle
system.cpu0.commit.committed_per_cycle::stdev     0.478136                       # Number of insts commited each cycle
system.cpu0.commit.committed_per_cycle::underflows            0      0.00%      0.00% # Number of insts commited each cycle
system.cpu0.commit.committed_per_cycle::0     29062919     96.79%     96.79% # Number of insts commited each cycle
system.cpu0.commit.committed_per_cycle::1       453403      1.51%     98.30% # Number of insts commited each cycle
system.cpu0.commit.committed_per_cycle::2       107149      0.36%     98.66% # Number of insts commited each cycle
system.cpu0.commit.committed_per_cycle::3       297561      0.99%     99.65% # Number of insts commited each cycle
system.cpu0.commit.committed_per_cycle::4        48004      0.16%     99.81% # Number of insts commited each cycle
system.cpu0.commit.committed_per_cycle::5        22888      0.08%     99.88% # Number of insts commited each cycle
system.cpu0.commit.committed_per_cycle::6         3769      0.01%     99.89% # Number of insts commited each cycle
system.cpu0.commit.committed_per_cycle::7         2918      0.01%     99.90% # Number of insts commited each cycle
system.cpu0.commit.committed_per_cycle::8        28721      0.10%    100.00% # Number of insts commited each cycle
system.cpu0.commit.committed_per_cycle::overflows            0      0.00%    100.00% # Number of insts commited each cycle
system.cpu0.commit.committed_per_cycle::min_value            0                       # Number of insts commited each cycle
system.cpu0.commit.committed_per_cycle::max_value            8                       # Number of insts commited each cycle
system.cpu0.commit.committed_per_cycle::total     30027332                       # Number of insts commited each cycle
system.cpu0.commit.committedInsts             1070822                       # Number of instructions committed
system.cpu0.commit.committedOps               2139648                       # Number of ops (including micro ops) committed
system.cpu0.commit.swp_count                        0                       # Number of s/w prefetches committed
system.cpu0.commit.refs                        428865                       # Number of memory references committed
system.cpu0.commit.loads                       411154                       # Number of loads committed
system.cpu0.commit.membars                          0                       # Number of memory barriers committed
system.cpu0.commit.branches                    392029                       # Number of branches committed
system.cpu0.commit.vec_insts                        0                       # Number of committed Vector instructions.
system.cpu0.commit.fp_insts                      7072                       # Number of committed floating point instructions.
system.cpu0.commit.int_insts                  2132473                       # Number of committed integer instructions.
system.cpu0.commit.function_calls                3125                       # Number of function calls committed.
system.cpu0.commit.op_class_0::No_OpClass         2151      0.10%      0.10% # Class of committed instruction
system.cpu0.commit.op_class_0::IntAlu         1697230     79.32%     79.42% # Class of committed instruction
system.cpu0.commit.op_class_0::IntMult            125      0.01%     79.43% # Class of committed instruction
system.cpu0.commit.op_class_0::IntDiv            5229      0.24%     79.67% # Class of committed instruction
system.cpu0.commit.op_class_0::FloatAdd          6048      0.28%     79.96% # Class of committed instruction
system.cpu0.commit.op_class_0::FloatCmp             0      0.00%     79.96% # Class of committed instruction
system.cpu0.commit.op_class_0::FloatCvt             0      0.00%     79.96% # Class of committed instruction
system.cpu0.commit.op_class_0::FloatMult            0      0.00%     79.96% # Class of committed instruction
system.cpu0.commit.op_class_0::FloatMultAcc            0      0.00%     79.96% # Class of committed instruction
system.cpu0.commit.op_class_0::FloatDiv             0      0.00%     79.96% # Class of committed instruction
system.cpu0.commit.op_class_0::FloatMisc            0      0.00%     79.96% # Class of committed instruction
system.cpu0.commit.op_class_0::FloatSqrt            0      0.00%     79.96% # Class of committed instruction
system.cpu0.commit.op_class_0::SimdAdd              0      0.00%     79.96% # Class of committed instruction
system.cpu0.commit.op_class_0::SimdAddAcc            0      0.00%     79.96% # Class of committed instruction
system.cpu0.commit.op_class_0::SimdAlu              0      0.00%     79.96% # Class of committed instruction
system.cpu0.commit.op_class_0::SimdCmp              0      0.00%     79.96% # Class of committed instruction
system.cpu0.commit.op_class_0::SimdCvt              0      0.00%     79.96% # Class of committed instruction
system.cpu0.commit.op_class_0::SimdMisc             0      0.00%     79.96% # Class of committed instruction
system.cpu0.commit.op_class_0::SimdMult             0      0.00%     79.96% # Class of committed instruction
system.cpu0.commit.op_class_0::SimdMultAcc            0      0.00%     79.96% # Class of committed instruction
system.cpu0.commit.op_class_0::SimdShift            0      0.00%     79.96% # Class of committed instruction
system.cpu0.commit.op_class_0::SimdShiftAcc            0      0.00%     79.96% # Class of committed instruction
system.cpu0.commit.op_class_0::SimdSqrt             0      0.00%     79.96% # Class of committed instruction
system.cpu0.commit.op_class_0::SimdFloatAdd            0      0.00%     79.96% # Class of committed instruction
system.cpu0.commit.op_class_0::SimdFloatAlu            0      0.00%     79.96% # Class of committed instruction
system.cpu0.commit.op_class_0::SimdFloatCmp            0      0.00%     79.96% # Class of committed instruction
system.cpu0.commit.op_class_0::SimdFloatCvt            0      0.00%     79.96% # Class of committed instruction
system.cpu0.commit.op_class_0::SimdFloatDiv            0      0.00%     79.96% # Class of committed instruction
system.cpu0.commit.op_class_0::SimdFloatMisc            0      0.00%     79.96% # Class of committed instruction
system.cpu0.commit.op_class_0::SimdFloatMult            0      0.00%     79.96% # Class of committed instruction
system.cpu0.commit.op_class_0::SimdFloatMultAcc            0      0.00%     79.96% # Class of committed instruction
system.cpu0.commit.op_class_0::SimdFloatSqrt            0      0.00%     79.96% # Class of committed instruction
system.cpu0.commit.op_class_0::MemRead         410130     19.17%     99.12% # Class of committed instruction
system.cpu0.commit.op_class_0::MemWrite         17711      0.83%     99.95% # Class of committed instruction
system.cpu0.commit.op_class_0::FloatMemRead         1024      0.05%    100.00% # Class of committed instruction
system.cpu0.commit.op_class_0::FloatMemWrite            0      0.00%    100.00% # Class of committed instruction
system.cpu0.commit.op_class_0::IprAccess            0      0.00%    100.00% # Class of committed instruction
system.cpu0.commit.op_class_0::InstPrefetch            0      0.00%    100.00% # Class of committed instruction
system.cpu0.commit.op_class_0::total          2139648                       # Class of committed instruction
system.cpu0.commit.bw_lim_events                28721                       # number cycles where commit BW limit reached
system.cpu0.rob.rob_reads                    35550685                       # The number of ROB reads
system.cpu0.rob.rob_writes                   11579182                       # The number of ROB writes
system.cpu0.timesIdled                            228                       # Number of times that the entire CPU went into an idle state and unscheduled itself
system.cpu0.idleCycles                          33228                       # Total number of cycles that the CPU has spent unscheduled due to idling
system.cpu0.committedInsts                    1070822                       # Number of Instructions Simulated
system.cpu0.committedOps                      2139648                       # Number of Ops (including micro ops) Simulated
system.cpu0.cpi                             28.515186                       # CPI: Cycles Per Instruction
system.cpu0.cpi_total                       28.515186                       # CPI: Total CPI of All Threads
system.cpu0.ipc                              0.035069                       # IPC: Instructions Per Cycle
system.cpu0.ipc_total                        0.035069                       # IPC: Total IPC of All Threads
system.cpu0.int_regfile_reads                 3774788                       # number of integer regfile reads
system.cpu0.int_regfile_writes                3304969                       # number of integer regfile writes
system.cpu0.fp_regfile_reads                    17193                       # number of floating regfile reads
system.cpu0.fp_regfile_writes                    8561                       # number of floating regfile writes
system.cpu0.cc_regfile_reads                  2520410                       # number of cc regfile reads
system.cpu0.cc_regfile_writes                 1044468                       # number of cc regfile writes
system.cpu0.misc_regfile_reads                2080301                       # number of misc regfile reads
system.cpu0.dcache.tags.pwrStateResidencyTicks::UNDEFINED  15267344125                       # Cumulative time (in ticks) in various power states
system.cpu0.dcache.tags.replacements           220287                       # number of replacements
system.cpu0.dcache.tags.tagsinuse                1024                       # Cycle average of tags in use
system.cpu0.dcache.tags.total_refs             214232                       # Total number of references to valid blocks.
system.cpu0.dcache.tags.sampled_refs           220287                       # Sample count of references to valid blocks.
system.cpu0.dcache.tags.avg_refs             0.972513                       # Average number of references to valid blocks.
system.cpu0.dcache.tags.warmup_cycle                0                       # Cycle when the warmup percentage was hit.
system.cpu0.dcache.tags.occ_blocks::cpu0.data         1024                       # Average occupied blocks per requestor
system.cpu0.dcache.tags.occ_percent::cpu0.data            1                       # Average percentage of cache occupancy
system.cpu0.dcache.tags.occ_percent::total            1                       # Average percentage of cache occupancy
system.cpu0.dcache.tags.occ_task_id_blocks::1024         1024                       # Occupied blocks per task id
system.cpu0.dcache.tags.age_task_id_blocks_1024::0          138                       # Occupied blocks per task id
system.cpu0.dcache.tags.age_task_id_blocks_1024::1          800                       # Occupied blocks per task id
system.cpu0.dcache.tags.age_task_id_blocks_1024::2           86                       # Occupied blocks per task id
system.cpu0.dcache.tags.occ_task_id_percent::1024            1                       # Percentage of cache occupancy per task id
system.cpu0.dcache.tags.tag_accesses          2646331                       # Number of tag accesses
system.cpu0.dcache.tags.data_accesses         2646331                       # Number of data accesses
system.cpu0.dcache.pwrStateResidencyTicks::UNDEFINED  15267344125                       # Cumulative time (in ticks) in various power states
system.cpu0.dcache.ReadReq_hits::cpu0.data       199523                       # number of ReadReq hits
system.cpu0.dcache.ReadReq_hits::total         199523                       # number of ReadReq hits
system.cpu0.dcache.WriteReq_hits::cpu0.data        16977                       # number of WriteReq hits
system.cpu0.dcache.WriteReq_hits::total         16977                       # number of WriteReq hits
system.cpu0.dcache.demand_hits::cpu0.data       216500                       # number of demand (read+write) hits
system.cpu0.dcache.demand_hits::total          216500                       # number of demand (read+write) hits
system.cpu0.dcache.overall_hits::cpu0.data       216500                       # number of overall hits
system.cpu0.dcache.overall_hits::total         216500                       # number of overall hits
system.cpu0.dcache.ReadReq_misses::cpu0.data       389277                       # number of ReadReq misses
system.cpu0.dcache.ReadReq_misses::total       389277                       # number of ReadReq misses
system.cpu0.dcache.WriteReq_misses::cpu0.data          734                       # number of WriteReq misses
system.cpu0.dcache.WriteReq_misses::total          734                       # number of WriteReq misses
system.cpu0.dcache.demand_misses::cpu0.data       390011                       # number of demand (read+write) misses
system.cpu0.dcache.demand_misses::total        390011                       # number of demand (read+write) misses
system.cpu0.dcache.overall_misses::cpu0.data       390011                       # number of overall misses
system.cpu0.dcache.overall_misses::total       390011                       # number of overall misses
system.cpu0.dcache.ReadReq_miss_latency::cpu0.data  34424194500                       # number of ReadReq miss cycles
system.cpu0.dcache.ReadReq_miss_latency::total  34424194500                       # number of ReadReq miss cycles
system.cpu0.dcache.WriteReq_miss_latency::cpu0.data     25651999                       # number of WriteReq miss cycles
system.cpu0.dcache.WriteReq_miss_latency::total     25651999                       # number of WriteReq miss cycles
system.cpu0.dcache.demand_miss_latency::cpu0.data  34449846499                       # number of demand (read+write) miss cycles
system.cpu0.dcache.demand_miss_latency::total  34449846499                       # number of demand (read+write) miss cycles
system.cpu0.dcache.overall_miss_latency::cpu0.data  34449846499                       # number of overall miss cycles
system.cpu0.dcache.overall_miss_latency::total  34449846499                       # number of overall miss cycles
system.cpu0.dcache.ReadReq_accesses::cpu0.data       588800                       # number of ReadReq accesses(hits+misses)
system.cpu0.dcache.ReadReq_accesses::total       588800                       # number of ReadReq accesses(hits+misses)
system.cpu0.dcache.WriteReq_accesses::cpu0.data        17711                       # number of WriteReq accesses(hits+misses)
system.cpu0.dcache.WriteReq_accesses::total        17711                       # number of WriteReq accesses(hits+misses)
system.cpu0.dcache.demand_accesses::cpu0.data       606511                       # number of demand (read+write) accesses
system.cpu0.dcache.demand_accesses::total       606511                       # number of demand (read+write) accesses
system.cpu0.dcache.overall_accesses::cpu0.data       606511                       # number of overall (read+write) accesses
system.cpu0.dcache.overall_accesses::total       606511                       # number of overall (read+write) accesses
system.cpu0.dcache.ReadReq_miss_rate::cpu0.data     0.661136                       # miss rate for ReadReq accesses
system.cpu0.dcache.ReadReq_miss_rate::total     0.661136                       # miss rate for ReadReq accesses
system.cpu0.dcache.WriteReq_miss_rate::cpu0.data     0.041443                       # miss rate for WriteReq accesses
system.cpu0.dcache.WriteReq_miss_rate::total     0.041443                       # miss rate for WriteReq accesses
system.cpu0.dcache.demand_miss_rate::cpu0.data     0.643040                       # miss rate for demand accesses
system.cpu0.dcache.demand_miss_rate::total     0.643040                       # miss rate for demand accesses
system.cpu0.dcache.overall_miss_rate::cpu0.data     0.643040                       # miss rate for overall accesses
system.cpu0.dcache.overall_miss_rate::total     0.643040                       # miss rate for overall accesses
system.cpu0.dcache.ReadReq_avg_miss_latency::cpu0.data 88431.103045                       # average ReadReq miss latency
system.cpu0.dcache.ReadReq_avg_miss_latency::total 88431.103045                       # average ReadReq miss latency
system.cpu0.dcache.WriteReq_avg_miss_latency::cpu0.data 34948.227520                       # average WriteReq miss latency
system.cpu0.dcache.WriteReq_avg_miss_latency::total 34948.227520                       # average WriteReq miss latency
system.cpu0.dcache.demand_avg_miss_latency::cpu0.data 88330.448369                       # average overall miss latency
system.cpu0.dcache.demand_avg_miss_latency::total 88330.448369                       # average overall miss latency
system.cpu0.dcache.overall_avg_miss_latency::cpu0.data 88330.448369                       # average overall miss latency
system.cpu0.dcache.overall_avg_miss_latency::total 88330.448369                       # average overall miss latency
system.cpu0.dcache.blocked_cycles::no_mshrs        14971                       # number of cycles access was blocked
system.cpu0.dcache.blocked_cycles::no_targets            0                       # number of cycles access was blocked
[...]
system.l2.tags.tag_accesses                   3721424                       # Number of tag accesses
system.l2.tags.data_accesses                  3721424                       # Number of data accesses
system.l2.pwrStateResidencyTicks::UNDEFINED  15267344125                       # Cumulative time (in ticks) in various power states
system.l2.WritebackDirty_hits::writebacks         1871                       # number of WritebackDirty hits
system.l2.WritebackDirty_hits::total             1871                       # number of WritebackDirty hits
system.l2.ReadExReq_hits::cpu0.data               558                       # number of ReadExReq hits
system.l2.ReadExReq_hits::total                   558                       # number of ReadExReq hits
system.l2.ReadSharedReq_hits::cpu0.data         20298                       # number of ReadSharedReq hits
system.l2.ReadSharedReq_hits::total             20298                       # number of ReadSharedReq hits
system.l2.demand_hits::cpu0.data                20856                       # number of demand (read+write) hits
system.l2.demand_hits::total                    20856                       # number of demand (read+write) hits
system.l2.overall_hits::cpu0.data               20856                       # number of overall hits
system.l2.overall_hits::total                   20856                       # number of overall hits
system.l2.ReadExReq_misses::cpu0.data             176                       # number of ReadExReq misses
system.l2.ReadExReq_misses::total                 176                       # number of ReadExReq misses
system.l2.ReadSharedReq_misses::cpu0.data       199255                       # number of ReadSharedReq misses
system.l2.ReadSharedReq_misses::total          199255                       # number of ReadSharedReq misses
system.l2.demand_misses::cpu0.data             199431                       # number of demand (read+write) misses
system.l2.demand_misses::total                 199431                       # number of demand (read+write) misses
system.l2.overall_misses::cpu0.data            199431                       # number of overall misses
system.l2.overall_misses::total                199431                       # number of overall misses
system.l2.ReadExReq_miss_latency::cpu0.data     17688500                       # number of ReadExReq miss cycles
system.l2.ReadExReq_miss_latency::total      17688500                       # number of ReadExReq miss cycles
system.l2.ReadSharedReq_miss_latency::cpu0.data  18803515000                       # number of ReadSharedReq miss cycles
system.l2.ReadSharedReq_miss_latency::total  18803515000                       # number of ReadSharedReq miss cycles
system.l2.demand_miss_latency::cpu0.data  18821203500                       # number of demand (read+write) miss cycles
system.l2.demand_miss_latency::total      18821203500                       # number of demand (read+write) miss cycles
system.l2.overall_miss_latency::cpu0.data  18821203500                       # number of overall miss cycles
system.l2.overall_miss_latency::total     18821203500                       # number of overall miss cycles
system.l2.WritebackDirty_accesses::writebacks         1871                       # number of WritebackDirty accesses(hits+misses)
system.l2.WritebackDirty_accesses::total         1871                       # number of WritebackDirty accesses(hits+misses)
system.l2.ReadExReq_accesses::cpu0.data           734                       # number of ReadExReq accesses(hits+misses)
system.l2.ReadExReq_accesses::total               734                       # number of ReadExReq accesses(hits+misses)
system.l2.ReadSharedReq_accesses::cpu0.data       219553                       # number of ReadSharedReq accesses(hits+misses)
system.l2.ReadSharedReq_accesses::total        219553                       # number of ReadSharedReq accesses(hits+misses)
system.l2.demand_accesses::cpu0.data           220287                       # number of demand (read+write) accesses
system.l2.demand_accesses::total               220287                       # number of demand (read+write) accesses
system.l2.overall_accesses::cpu0.data          220287                       # number of overall (read+write) accesses
system.l2.overall_accesses::total              220287                       # number of overall (read+write) accesses
system.l2.ReadExReq_miss_rate::cpu0.data     0.239782                       # miss rate for ReadExReq accesses
system.l2.ReadExReq_miss_rate::total         0.239782                       # miss rate for ReadExReq accesses
system.l2.ReadSharedReq_miss_rate::cpu0.data     0.907549                       # miss rate for ReadSharedReq accesses
system.l2.ReadSharedReq_miss_rate::total     0.907549                       # miss rate for ReadSharedReq accesses
system.l2.demand_miss_rate::cpu0.data        0.905324                       # miss rate for demand accesses
system.l2.demand_miss_rate::total            0.905324                       # miss rate for demand accesses
system.l2.overall_miss_rate::cpu0.data       0.905324                       # miss rate for overall accesses
system.l2.overall_miss_rate::total           0.905324                       # miss rate for overall accesses
system.l2.ReadExReq_avg_miss_latency::cpu0.data 100502.840909                       # average ReadExReq miss latency
system.l2.ReadExReq_avg_miss_latency::total 100502.840909                       # average ReadExReq miss latency
system.l2.ReadSharedReq_avg_miss_latency::cpu0.data 94369.099897                       # average ReadSharedReq miss latency
system.l2.ReadSharedReq_avg_miss_latency::total 94369.099897                       # average ReadSharedReq miss latency
system.l2.demand_avg_miss_latency::cpu0.data 94374.512989                       # average overall miss latency
system.l2.demand_avg_miss_latency::total 94374.512989                       # average overall miss latency
system.l2.overall_avg_miss_latency::cpu0.data 94374.512989                       # average overall miss latency
system.l2.overall_avg_miss_latency::total 94374.512989                       # average overall miss latency
system.l2.blocked_cycles::no_mshrs                  0                       # number of cycles access was blocked
system.l2.blocked_cycles::no_targets                0                       # number of cycles access was blocked
system.l2.blocked::no_mshrs                         0                       # number of cycles access was blocked
system.l2.blocked::no_targets                       0                       # number of cycles access was blocked
system.l2.avg_blocked_cycles::no_mshrs            nan                       # average number of cycles each access was blocked
system.l2.avg_blocked_cycles::no_targets          nan                       # average number of cycles each access was blocked
system.l2.writebacks::writebacks                  284                       # number of writebacks
system.l2.writebacks::total                       284                       # number of writebacks
system.l2.ReadExReq_mshr_misses::cpu0.data          176                       # number of ReadExReq MSHR misses
system.l2.ReadExReq_mshr_misses::total            176                       # number of ReadExReq MSHR misses
system.l2.ReadSharedReq_mshr_misses::cpu0.data       199255                       # number of ReadSharedReq MSHR misses
system.l2.ReadSharedReq_mshr_misses::total       199255                       # number of ReadSharedReq MSHR misses
system.l2.demand_mshr_misses::cpu0.data        199431                       # number of demand (read+write) MSHR misses
system.l2.demand_mshr_misses::total            199431                       # number of demand (read+write) MSHR misses
system.l2.overall_mshr_misses::cpu0.data       199431                       # number of overall MSHR misses
system.l2.overall_mshr_misses::total           199431                       # number of overall MSHR misses
system.l2.ReadExReq_mshr_miss_latency::cpu0.data     15928500                       # number of ReadExReq MSHR miss cycles
system.l2.ReadExReq_mshr_miss_latency::total     15928500                       # number of ReadExReq MSHR miss cycles
system.l2.ReadSharedReq_mshr_miss_latency::cpu0.data  16810965000                       # number of ReadSharedReq MSHR miss cycles
system.l2.ReadSharedReq_mshr_miss_latency::total  16810965000                       # number of ReadSharedReq MSHR miss cycles
system.l2.demand_mshr_miss_latency::cpu0.data  16826893500                       # number of demand (read+write) MSHR miss cycles
system.l2.demand_mshr_miss_latency::total  16826893500                       # number of demand (read+write) MSHR miss cycles
system.l2.overall_mshr_miss_latency::cpu0.data  16826893500                       # number of overall MSHR miss cycles
system.l2.overall_mshr_miss_latency::total  16826893500                       # number of overall MSHR miss cycles
system.l2.ReadExReq_mshr_miss_rate::cpu0.data     0.239782                       # mshr miss rate for ReadExReq accesses
system.l2.ReadExReq_mshr_miss_rate::total     0.239782                       # mshr miss rate for ReadExReq accesses
system.l2.ReadSharedReq_mshr_miss_rate::cpu0.data     0.907549                       # mshr miss rate for ReadSharedReq accesses
system.l2.ReadSharedReq_mshr_miss_rate::total     0.907549                       # mshr miss rate for ReadSharedReq accesses
system.l2.demand_mshr_miss_rate::cpu0.data     0.905324                       # mshr miss rate for demand accesses
system.l2.demand_mshr_miss_rate::total       0.905324                       # mshr miss rate for demand accesses
system.l2.overall_mshr_miss_rate::cpu0.data     0.905324                       # mshr miss rate for overall accesses
system.l2.overall_mshr_miss_rate::total      0.905324                       # mshr miss rate for overall accesses
system.l2.ReadExReq_avg_mshr_miss_latency::cpu0.data 90502.840909                       # average ReadExReq mshr miss latency
system.l2.ReadExReq_avg_mshr_miss_latency::total 90502.840909                       # average ReadExReq mshr miss latency
system.l2.ReadSharedReq_avg_mshr_miss_latency::cpu0.data 84369.099897                       # average ReadSharedReq mshr miss latency
system.l2.ReadSharedReq_avg_mshr_miss_latency::total 84369.099897                       # average ReadSharedReq mshr miss latency
system.l2.demand_avg_mshr_miss_latency::cpu0.data 84374.512989                       # average overall mshr miss latency
system.l2.demand_avg_mshr_miss_latency::total 84374.512989                       # average overall mshr miss latency
system.l2.overall_avg_mshr_miss_latency::cpu0.data 84374.512989                       # average overall mshr miss latency
system.l2.overall_avg_mshr_miss_latency::total 84374.512989                       # average overall mshr miss latency
system.membus.snoop_filter.tot_requests        398855                       # Total number of requests made to the snoop filter.
system.membus.snoop_filter.hit_single_requests       199431                       # Number of requests hitting in the snoop filter with a single holder of the requested data.
system.membus.snoop_filter.hit_multi_requests            0                       # Number of requests hitting in the snoop filter with multiple (>1) holders of the requested data.
system.membus.snoop_filter.tot_snoops               0                       # Total number of snoops made to the snoop filter.
system.membus.snoop_filter.hit_single_snoops            0                       # Number of snoops hitting in the snoop filter with a single holder of the requested data.
system.membus.snoop_filter.hit_multi_snoops            0                       # Number of snoops hitting in the snoop filter with multiple (>1) holders of the requested data.
system.membus.pwrStateResidencyTicks::UNDEFINED  15267344125                       # Cumulative time (in ticks) in various power states
system.membus.trans_dist::ReadResp             199255                       # Transaction distribution
system.membus.trans_dist::WritebackDirty          284                       # Transaction distribution
system.membus.trans_dist::CleanEvict           199140                       # Transaction distribution
system.membus.trans_dist::ReadExReq               176                       # Transaction distribution
system.membus.trans_dist::ReadExResp              176                       # Transaction distribution
system.membus.trans_dist::ReadSharedReq        199255                       # Transaction distribution
system.membus.pkt_count_system.l2.mem_side::system.mem_ctrls.port       598286                       # Packet count per connected master and slave (bytes)
system.membus.pkt_count_system.l2.mem_side::total       598286                       # Packet count per connected master and slave (bytes)
system.membus.pkt_count::total                 598286                       # Packet count per connected master and slave (bytes)
system.membus.pkt_size_system.l2.mem_side::system.mem_ctrls.port     12781760                       # Cumulative packet size per connected master and slave (bytes)
system.membus.pkt_size_system.l2.mem_side::total     12781760                       # Cumulative packet size per connected master and slave (bytes)
system.membus.pkt_size::total                12781760                       # Cumulative packet size per connected master and slave (bytes)
system.membus.snoops                                0                       # Total snoops (count)
system.membus.snoopTraffic                          0                       # Total snoop traffic (bytes)
system.membus.snoop_fanout::samples            199431                       # Request fanout histogram
system.membus.snoop_fanout::mean                    0                       # Request fanout histogram
system.membus.snoop_fanout::stdev                   0                       # Request fanout histogram
system.membus.snoop_fanout::underflows              0      0.00%      0.00% # Request fanout histogram
system.membus.snoop_fanout::0                  199431    100.00%    100.00% # Request fanout histogram
system.membus.snoop_fanout::1                       0      0.00%    100.00% # Request fanout histogram
system.membus.snoop_fanout::overflows               0      0.00%    100.00% # Request fanout histogram
system.membus.snoop_fanout::min_value               0                       # Request fanout histogram
system.membus.snoop_fanout::max_value               0                       # Request fanout histogram
system.membus.snoop_fanout::total              199431                       # Request fanout histogram
system.membus.reqLayer4.occupancy           471181000                       # Layer occupancy (ticks)
system.membus.reqLayer4.utilization               3.1                       # Layer utilization (%)
system.membus.respLayer1.occupancy         1076766250                       # Layer occupancy (ticks)
system.membus.respLayer1.utilization              7.1                       # Layer utilization (%)
system.tol2bus.snoop_filter.tot_requests       440574                       # Total number of requests made to the snoop filter.
system.tol2bus.snoop_filter.hit_single_requests       220284                       # Number of requests hitting in the snoop filter with a single holder of the requested data.
system.tol2bus.snoop_filter.hit_multi_requests          555                       # Number of requests hitting in the snoop filter with multiple (>1) holders of the requested data.
system.tol2bus.snoop_filter.tot_snoops              8                       # Total number of snoops made to the snoop filter.
system.tol2bus.snoop_filter.hit_single_snoops            8                       # Number of snoops hitting in the snoop filter with a single holder of the requested data.
system.tol2bus.snoop_filter.hit_multi_snoops            0                       # Number of snoops hitting in the snoop filter with multiple (>1) holders of the requested data.
system.tol2bus.pwrStateResidencyTicks::UNDEFINED  15267344125                       # Cumulative time (in ticks) in various power states
system.tol2bus.trans_dist::ReadResp            219553                       # Transaction distribution
system.tol2bus.trans_dist::WritebackDirty         2155                       # Transaction distribution
system.tol2bus.trans_dist::CleanEvict          417564                       # Transaction distribution
system.tol2bus.trans_dist::ReadExReq              734                       # Transaction distribution
system.tol2bus.trans_dist::ReadExResp             734                       # Transaction distribution
system.tol2bus.trans_dist::ReadSharedReq       219553                       # Transaction distribution
system.tol2bus.pkt_count_system.cpu0.dcache.mem_side::system.l2.cpu_side       660861                       # Packet count per connected master and slave (bytes)
system.tol2bus.pkt_count::total                660861                       # Packet count per connected master and slave (bytes)
system.tol2bus.pkt_size_system.cpu0.dcache.mem_side::system.l2.cpu_side     14218112                       # Cumulative packet size per connected master and slave (bytes)
system.tol2bus.pkt_size::total               14218112                       # Cumulative packet size per connected master and slave (bytes)
system.tol2bus.snoops                          199432                       # Total snoops (count)
system.tol2bus.snoopTraffic                     18176                       # Total snoop traffic (bytes)
system.tol2bus.snoop_fanout::samples           419719                       # Request fanout histogram
system.tol2bus.snoop_fanout::mean            0.001334                       # Request fanout histogram
system.tol2bus.snoop_fanout::stdev           0.036503                       # Request fanout histogram
system.tol2bus.snoop_fanout::underflows             0      0.00%      0.00% # Request fanout histogram
system.tol2bus.snoop_fanout::0                 419159     99.87%     99.87% # Request fanout histogram
system.tol2bus.snoop_fanout::1                    560      0.13%    100.00% # Request fanout histogram
system.tol2bus.snoop_fanout::2                      0      0.00%    100.00% # Request fanout histogram
system.tol2bus.snoop_fanout::3                      0      0.00%    100.00% # Request fanout histogram
system.tol2bus.snoop_fanout::4                      0      0.00%    100.00% # Request fanout histogram
system.tol2bus.snoop_fanout::5                      0      0.00%    100.00% # Request fanout histogram
system.tol2bus.snoop_fanout::6                      0      0.00%    100.00% # Request fanout histogram
system.tol2bus.snoop_fanout::7                      0      0.00%    100.00% # Request fanout histogram
system.tol2bus.snoop_fanout::8                      0      0.00%    100.00% # Request fanout histogram
system.tol2bus.snoop_fanout::overflows              0      0.00%    100.00% # Request fanout histogram
system.tol2bus.snoop_fanout::min_value              0                       # Request fanout histogram
system.tol2bus.snoop_fanout::max_value              1                       # Request fanout histogram
system.tol2bus.snoop_fanout::total             419719                       # Request fanout histogram
system.tol2bus.reqLayer0.occupancy          222158000                       # Layer occupancy (ticks)
system.tol2bus.reqLayer0.utilization              1.5                       # Layer utilization (%)
system.tol2bus.respLayer1.occupancy         330430500                       # Layer occupancy (ticks)
system.tol2bus.respLayer1.utilization             2.2                       # Layer utilization (%)

---------- End Simulation Statistics   ----------
