
---------- Begin Simulation Statistics ----------
sim_seconds                                  0.015267                       # Number of seconds simulated
sim_ticks                                 15267344125                       # Number of ticks simulated
final_tick                               10839814328750                       # Number of ticks from beginning of simulation (restored from checkpoints and never reset)
sim_freq                                 1000000000000                       # Frequency of simulated ticks
host_inst_rate                              113845121                       # Simulator instruction rate (inst/s)
host_op_rate                                213021697                       # Simulator op (including micro ops) rate (op/s)
host_tick_rate                              275580428                       # Simulator tick rate (ticks/s)
host_mem_usage                                1248940                       # Number of bytes of host memory used
host_seconds                                    55.40                       # Real time elapsed on the host
sim_insts                                  6307095522                       # Number of instructions simulated
sim_ops                                   11801545945                       # Number of ops (including micro ops) simulated
system.voltage_domain.voltage                       1                       # Voltage in Volts
system.clk_domain.clock                          1000                       # Clock period in ticks
system.mem_ctrls.pwrStateResidencyTicks::UNDEFINED  15267344125                       # Cumulative time (in ticks) in various power states
system.mem_ctrls.bytes_read::cpu0.inst          25920                       # Number of bytes read from this memory
system.mem_ctrls.bytes_read::cpu0.data        9994432                       # Number of bytes read from this memory
system.mem_ctrls.bytes_read::total           10020352                       # Number of bytes read from this memory
system.mem_ctrls.bytes_inst_read::cpu0.inst        25920                       # Number of instructions bytes read from this memory
system.mem_ctrls.bytes_inst_read::total         25920                       # Number of instructions bytes read from this memory
system.mem_ctrls.bytes_written::writebacks      9948224                       # Number of bytes written to this memory
system.mem_ctrls.bytes_written::total         9948224                       # Number of bytes written to this memory
system.mem_ctrls.num_reads::cpu0.inst             405                       # Number of read requests responded to by this memory
system.mem_ctrls.num_reads::cpu0.data          156163                       # Number of read requests responded to by this memory
system.mem_ctrls.num_reads::total              156568                       # Number of read requests responded to by this memory
system.mem_ctrls.num_writes::writebacks        155441                       # Number of write requests responded to by this memory
system.mem_ctrls.num_writes::total             155441                       # Number of write requests responded to by this memory
system.mem_ctrls.bw_read::cpu0.inst           1697741                       # Total read bandwidth from this memory (bytes/s)
system.mem_ctrls.bw_read::cpu0.data         654628069                       # Total read bandwidth from this memory (bytes/s)
system.mem_ctrls.bw_read::total             656325810                       # Total read bandwidth from this memory (bytes/s)
system.mem_ctrls.bw_inst_read::cpu0.inst      1697741                       # Instruction read bandwidth from this memory (bytes/s)
system.mem_ctrls.bw_inst_read::total          1697741                       # Instruction read bandwidth from this memory (bytes/s)
system.mem_ctrls.bw_write::writebacks       651601478                       # Write bandwidth from this memory (bytes/s)
system.mem_ctrls.bw_write::total            651601478                       # Write bandwidth from this memory (bytes/s)
system.mem_ctrls.bw_total::writebacks       651601478                       # Total bandwidth to/from this memory (bytes/s)
system.mem_ctrls.bw_total::cpu0.inst          1697741                       # Total bandwidth to/from this memory (bytes/s)
system.mem_ctrls.bw_total::cpu0.data        654628069                       # Total bandwidth to/from this memory (bytes/s)
system.mem_ctrls.bw_total::total           1307927288                       # Total bandwidth to/from this memory (bytes/s)
system.mem_ctrls.readReqs                      156569                       # Number of read requests accepted
system.mem_ctrls.writeReqs                     155441                       # Number of write requests accepted
system.mem_ctrls.readBursts                    156569                       # Number of DRAM read bursts, including those serviced by the write queue
system.mem_ctrls.writeBursts                   155441                       # Number of DRAM write bursts, including those merged in the write queue
system.mem_ctrls.bytesReadDRAM               10020416                       # Total number of bytes read from DRAM
system.mem_ctrls.bytesReadWrQ                       0                       # Total number of bytes read from write queue
system.mem_ctrls.bytesWritten                 9948544                       # Total number of bytes written to DRAM
system.mem_ctrls.bytesReadSys                10020416                       # Total read bytes from the system interface side
system.mem_ctrls.bytesWrittenSys              9948224                       # Total written bytes from the system interface side
system.mem_ctrls.servicedByWrQ                      0                       # Number of DRAM read bursts serviced by the write queue
system.mem_ctrls.mergedWrBursts                     0                       # Number of DRAM write bursts merged with an existing one
system.mem_ctrls.neitherReadNorWriteReqs            0                       # Number of requests that are neither read nor write
system.mem_ctrls.perBankRdBursts::0              9362                       # Per bank write bursts
system.mem_ctrls.perBankRdBursts::1              9848                       # Per bank write bursts
system.mem_ctrls.perBankRdBursts::2             10119                       # Per bank write bursts
system.mem_ctrls.perBankRdBursts::3              9539                       # Per bank write bursts
system.mem_ctrls.perBankRdBursts::4              9354                       # Per bank write bursts
system.mem_ctrls.perBankRdBursts::5              9939                       # Per bank write bursts
system.mem_ctrls.perBankRdBursts::6             10235                       # Per bank write bursts
system.mem_ctrls.perBankRdBursts::7             10285                       # Per bank write bursts
system.mem_ctrls.perBankRdBursts::8             10287                       # Per bank write bursts
system.mem_ctrls.perBankRdBursts::9             10103                       # Per bank write bursts
system.mem_ctrls.perBankRdBursts::10             9905                       # Per bank write bursts
system.mem_ctrls.perBankRdBursts::11             9881                       # Per bank write bursts
system.mem_ctrls.perBankRdBursts::12             9501                       # Per bank write bursts
system.mem_ctrls.perBankRdBursts::13             9267                       # Per bank write bursts
system.mem_ctrls.perBankRdBursts::14             9560                       # Per bank write bursts
system.mem_ctrls.perBankRdBursts::15             9384                       # Per bank write bursts
system.mem_ctrls.perBankWrBursts::0              9311                       # Per bank write bursts
system.mem_ctrls.perBankWrBursts::1              9830                       # Per bank write bursts
system.mem_ctrls.perBankWrBursts::2              9957                       # Per bank write bursts
system.mem_ctrls.perBankWrBursts::3              9468                       # Per bank write bursts
system.mem_ctrls.perBankWrBursts::4              9265                       # Per bank write bursts
system.mem_ctrls.perBankWrBursts::5              9956                       # Per bank write bursts
system.mem_ctrls.perBankWrBursts::6             10137                       # Per bank write bursts
system.mem_ctrls.perBankWrBursts::7             10023                       # Per bank write bursts
system.mem_ctrls.perBankWrBursts::8             10158                       # Per bank write bursts
system.mem_ctrls.perBankWrBursts::9             10087                       # Per bank write bursts
system.mem_ctrls.perBankWrBursts::10             9883                       # Per bank write bursts
system.mem_ctrls.perBankWrBursts::11             9871                       # Per bank write bursts
system.mem_ctrls.perBankWrBursts::12             9431                       # Per bank write bursts
system.mem_ctrls.perBankWrBursts::13             9235                       # Per bank write bursts
system.mem_ctrls.perBankWrBursts::14             9516                       # Per bank write bursts
system.mem_ctrls.perBankWrBursts::15             9318                       # Per bank write bursts
system.mem_ctrls.numRdRetry                         0                       # Number of times read queue was full causing retry
system.mem_ctrls.numWrRetry                         0                       # Number of times write queue was full causing retry
system.mem_ctrls.totGap                   15267373000                       # Total gap between requests
system.mem_ctrls.readPktSize::0                     0                       # Read request sizes (log2)
system.mem_ctrls.readPktSize::1                     0                       # Read request sizes (log2)
system.mem_ctrls.readPktSize::2                     0                       # Read request sizes (log2)
system.mem_ctrls.readPktSize::3                     0                       # Read request sizes (log2)
system.mem_ctrls.readPktSize::4                     0                       # Read request sizes (log2)
system.mem_ctrls.readPktSize::5                     0                       # Read request sizes (log2)
system.mem_ctrls.readPktSize::6                156569                       # Read request sizes (log2)
system.mem_ctrls.writePktSize::0                    0                       # Write request sizes (log2)
system.mem_ctrls.writePktSize::1                    0                       # Write request sizes (log2)
system.mem_ctrls.writePktSize::2                    0                       # Write request sizes (log2)
system.mem_ctrls.writePktSize::3                    0                       # Write request sizes (log2)
system.mem_ctrls.writePktSize::4                    0                       # Write request sizes (log2)
system.mem_ctrls.writePktSize::5                    0                       # Write request sizes (log2)
system.mem_ctrls.writePktSize::6               155441                       # Write request sizes (log2)
system.mem_ctrls.rdQLenPdf::0                  155419                       # What read queue length does an incoming req see
system.mem_ctrls.rdQLenPdf::1                     724                       # What read queue length does an incoming req see
system.mem_ctrls.rdQLenPdf::2                     297                       # What read queue length does an incoming req see
system.mem_ctrls.rdQLenPdf::3                     105                       # What read queue length does an incoming req see
system.mem_ctrls.rdQLenPdf::4                      20                       # What read queue length does an incoming req see
system.mem_ctrls.rdQLenPdf::5                       4                       # What read queue length does an incoming req see
system.mem_ctrls.rdQLenPdf::6                       0                       # What read queue length does an incoming req see
system.mem_ctrls.rdQLenPdf::7                       0                       # What read queue length does an incoming req see
system.mem_ctrls.rdQLenPdf::8                       0                       # What read queue length does an incoming req see
system.mem_ctrls.rdQLenPdf::9                       0                       # What read queue length does an incoming req see
system.mem_ctrls.rdQLenPdf::10                      0                       # What read queue length does an incoming req see
system.mem_ctrls.rdQLenPdf::11                      0                       # What read queue length does an incoming req see
system.mem_ctrls.rdQLenPdf::12                      0                       # What read queue length does an incoming req see
system.mem_ctrls.rdQLenPdf::13                      0                       # What read queue length does an incoming req see
system.mem_ctrls.rdQLenPdf::14                      0                       # What read queue length does an incoming req see
system.mem_ctrls.rdQLenPdf::15                      0                       # What read queue length does an incoming req see
system.mem_ctrls.rdQLenPdf::16                      0                       # What read queue length does an incoming req see
system.mem_ctrls.rdQLenPdf::17                      0                       # What read queue length does an incoming req see
system.mem_ctrls.rdQLenPdf::18                      0                       # What read queue length does an incoming req see
system.mem_ctrls.rdQLenPdf::19                      0                       # What read queue length does an incoming req see
system.mem_ctrls.rdQLenPdf::20                      0                       # What read queue length does an incoming req see
system.mem_ctrls.rdQLenPdf::21                      0                       # What read queue length does an incoming req see
system.mem_ctrls.rdQLenPdf::22                      0                       # What read queue length does an incoming req see
system.mem_ctrls.rdQLenPdf::23                      0                       # What read queue length does an incoming req see
system.mem_ctrls.rdQLenPdf::24                      0                       # What read queue length does an incoming req see
system.mem_ctrls.rdQLenPdf::25                      0                       # What read queue length does an incoming req see
system.mem_ctrls.rdQLenPdf::26                      0                       # What read queue length does an incoming req see
system.mem_ctrls.rdQLenPdf::27                      0                       # What read queue length does an incoming req see
system.mem_ctrls.rdQLenPdf::28                      0                       # What read queue length does an incoming req see
system.mem_ctrls.rdQLenPdf::29                      0                       # What read queue length does an incoming req see
system.mem_ctrls.rdQLenPdf::30                      0                       # What read queue length does an incoming req see
system.mem_ctrls.rdQLenPdf::31                      0                       # What read queue length does an incoming req see
system.mem_ctrls.wrQLenPdf::0                       0                       # What write queue length does an incoming req see
system.mem_ctrls.wrQLenPdf::1                       0                       # What write queue length does an incoming req see
system.mem_ctrls.wrQLenPdf::2                       0                       # What write queue length does an incoming req see
system.mem_ctrls.wrQLenPdf::3                       0                       # What write queue length does an incoming req see
system.mem_ctrls.wrQLenPdf::4                       0                       # What write queue length does an incoming req see
system.mem_ctrls.wrQLenPdf::5                       0                       # What write queue length does an incoming req see
system.mem_ctrls.wrQLenPdf::6                       0                       # What write queue length does an incoming req see
system.mem_ctrls.wrQLenPdf::7                       0                       # What write queue length does an incoming req see
system.mem_ctrls.wrQLenPdf::8                       0                       # What write queue length does an incoming req see
system.mem_ctrls.wrQLenPdf::9                       0                       # What write queue length does an incoming req see
system.mem_ctrls.wrQLenPdf::10                      0                       # What write queue length does an incoming req see
system.mem_ctrls.wrQLenPdf::11                      0                       # What write queue length does an incoming req see
system.mem_ctrls.wrQLenPdf::12                      0                       # What write queue length does an incoming req see
system.mem_ctrls.wrQLenPdf::13                      0                       # What write queue length does an incoming req see
system.mem_ctrls.wrQLenPdf::14                      0                       # What write queue length does an incoming req see
system.mem_ctrls.wrQLenPdf::15                     30                       # What write queue length does an incoming req see
system.mem_ctrls.wrQLenPdf::16                     37                       # What write queue length does an incoming req see
system.mem_ctrls.wrQLenPdf::17                   9605                       # What write queue length does an incoming req see
system.mem_ctrls.wrQLenPdf::18                   9651                       # What write queue length does an incoming req see
system.mem_ctrls.wrQLenPdf::19                   9689                       # What write queue length does an incoming req see
system.mem_ctrls.wrQLenPdf::20                   9709                       # What write queue length does an incoming req see
system.mem_ctrls.wrQLenPdf::21                   9713                       # What write queue length does an incoming req see
system.mem_ctrls.wrQLenPdf::22                   9722                       # What write queue length does an incoming req see
system.mem_ctrls.wrQLenPdf::23                   9714                       # What write queue length does an incoming req see
system.mem_ctrls.wrQLenPdf::24                   9712                       # What write queue length does an incoming req see
system.mem_ctrls.wrQLenPdf::25                   9715                       # What write queue length does an incoming req see
system.mem_ctrls.wrQLenPdf::26                   9723                       # What write queue length does an incoming req see
system.mem_ctrls.wrQLenPdf::27                   9749                       # What write queue length does an incoming req see
system.mem_ctrls.wrQLenPdf::28                   9727                       # What write queue length does an incoming req see
system.mem_ctrls.wrQLenPdf::29                   9739                       # What write queue length does an incoming req see
system.mem_ctrls.wrQLenPdf::30                   9748                       # What write queue length does an incoming req see
system.mem_ctrls.wrQLenPdf::31                   9726                       # What write queue length does an incoming req see
system.mem_ctrls.wrQLenPdf::32                   9710                       # What write queue length does an incoming req see
system.mem_ctrls.wrQLenPdf::33                      5                       # What write queue length does an incoming req see
system.mem_ctrls.wrQLenPdf::34                      3                       # What write queue length does an incoming req see
system.mem_ctrls.wrQLenPdf::35                      2                       # What write queue length does an incoming req see
system.mem_ctrls.wrQLenPdf::36                      2                       # What write queue length does an incoming req see
system.mem_ctrls.wrQLenPdf::37                      2                       # What write queue length does an incoming req see
system.mem_ctrls.wrQLenPdf::38                      3                       # What write queue length does an incoming req see
system.mem_ctrls.wrQLenPdf::39                      1                       # What write queue length does an incoming req see
system.mem_ctrls.wrQLenPdf::40                      1                       # What write queue length does an incoming req see
system.mem_ctrls.wrQLenPdf::41                      1                       # What write queue length does an incoming req see
system.mem_ctrls.wrQLenPdf::42                      1                       # What write queue length does an incoming req see
system.mem_ctrls.wrQLenPdf::43                      1                       # What write queue length does an incoming req see
system.mem_ctrls.wrQLenPdf::44                      0                       # What write queue length does an incoming req see
system.mem_ctrls.wrQLenPdf::45                      0                       # What write queue length does an incoming req see
system.mem_ctrls.wrQLenPdf::46                      0                       # What write queue length does an incoming req see
system.mem_ctrls.wrQLenPdf::47                      0                       # What write queue length does an incoming req see
system.mem_ctrls.wrQLenPdf::48                      0                       # What write queue length does an incoming req see
system.mem_ctrls.wrQLenPdf::49                      0                       # What write queue length does an incoming req see
system.mem_ctrls.wrQLenPdf::50                      0                       # What write queue length does an incoming req see
system.mem_ctrls.wrQLenPdf::51                      0                       # What write queue length does an incoming req see
system.mem_ctrls.wrQLenPdf::52                      0                       # What write queue length does an incoming req see
system.mem_ctrls.wrQLenPdf::53                      0                       # What write queue length does an incoming req see
system.mem_ctrls.wrQLenPdf::54                      0                       # What write queue length does an incoming req see
system.mem_ctrls.wrQLenPdf::55                      0                       # What write queue length does an incoming req see
system.mem_ctrls.wrQLenPdf::56                      0                       # What write queue length does an incoming req see
system.mem_ctrls.wrQLenPdf::57                      0                       # What write queue length does an incoming req see
system.mem_ctrls.wrQLenPdf::58                      0                       # What write queue length does an incoming req see
system.mem_ctrls.wrQLenPdf::59                      0                       # What write queue length does an incoming req see
system.mem_ctrls.wrQLenPdf::60                      0                       # What write queue length does an incoming req see
system.mem_ctrls.wrQLenPdf::61                      0                       # What write queue length does an incoming req see
system.mem_ctrls.wrQLenPdf::62                      0                       # What write queue length does an incoming req see
system.mem_ctrls.wrQLenPdf::63                      0                       # What write queue length does an incoming req see
system.mem_ctrls.bytesPerActivate::samples        27566                       # Bytes accessed per row activation
system.mem_ctrls.bytesPerActivate::mean    724.421679                       # Bytes accessed per row activation
system.mem_ctrls.bytesPerActivate::gmean   564.330012                       # Bytes accessed per row activation
system.mem_ctrls.bytesPerActivate::stdev   359.452151                       # Bytes accessed per row activation
system.mem_ctrls.bytesPerActivate::0-127         2099      7.61%      7.61% # Bytes accessed per row activation
system.mem_ctrls.bytesPerActivate::128-255         2321      8.42%     16.03% # Bytes accessed per row activation
system.mem_ctrls.bytesPerActivate::256-383         1869      6.78%     22.81% # Bytes accessed per row activation
system.mem_ctrls.bytesPerActivate::384-511         1908      6.92%     29.74% # Bytes accessed per row activation
system.mem_ctrls.bytesPerActivate::512-639         1486      5.39%     35.13% # Bytes accessed per row activation
system.mem_ctrls.bytesPerActivate::640-767         1575      5.71%     40.84% # Bytes accessed per row activation
system.mem_ctrls.bytesPerActivate::768-895         1291      4.68%     45.52% # Bytes accessed per row activation
system.mem_ctrls.bytesPerActivate::896-1023         1314      4.77%     50.29% # Bytes accessed per row activation
system.mem_ctrls.bytesPerActivate::1024-1151        13703     49.71%    100.00% # Bytes accessed per row activation
system.mem_ctrls.bytesPerActivate::total        27566                       # Bytes accessed per row activation
system.mem_ctrls.rdPerTurnAround::samples         9707                       # Reads before turning the bus around for writes
system.mem_ctrls.rdPerTurnAround::mean      16.130009                       # Reads before turning the bus around for writes
system.mem_ctrls.rdPerTurnAround::gmean     16.079850                       # Reads before turning the bus around for writes
system.mem_ctrls.rdPerTurnAround::stdev      1.580452                       # Reads before turning the bus around for writes
system.mem_ctrls.rdPerTurnAround::4-7               6      0.06%      0.06% # Reads before turning the bus around for writes
system.mem_ctrls.rdPerTurnAround::8-11             41      0.42%      0.48% # Reads before turning the bus around for writes
system.mem_ctrls.rdPerTurnAround::12-15           112      1.15%      1.64% # Reads before turning the bus around for writes
system.mem_ctrls.rdPerTurnAround::16-19          9400     96.84%     98.48% # Reads before turning the bus around for writes
system.mem_ctrls.rdPerTurnAround::20-23           100      1.03%     99.51% # Reads before turning the bus around for writes
system.mem_ctrls.rdPerTurnAround::24-27            27      0.28%     99.78% # Reads before turning the bus around for writes
system.mem_ctrls.rdPerTurnAround::28-31            10      0.10%     99.89% # Reads before turning the bus around for writes
system.mem_ctrls.rdPerTurnAround::32-35             3      0.03%     99.92% # Reads before turning the bus around for writes
system.mem_ctrls.rdPerTurnAround::36-39             2      0.02%     99.94% # Reads before turning the bus around for writes
system.mem_ctrls.rdPerTurnAround::40-43             1      0.01%     99.95% # Reads before turning the bus around for writes
system.mem_ctrls.rdPerTurnAround::44-47             1      0.01%     99.96% # Reads before turning the bus around for writes
system.mem_ctrls.rdPerTurnAround::48-51             1      0.01%     99.97% # Reads before turning the bus around for writes
system.mem_ctrls.rdPerTurnAround::52-55             1      0.01%     99.98% # Reads before turning the bus around for writes
system.mem_ctrls.rdPerTurnAround::72-75             1      0.01%     99.99% # Reads before turning the bus around for writes
system.mem_ctrls.rdPerTurnAround::76-79             1      0.01%    100.00% # Reads before turning the bus around for writes
system.mem_ctrls.rdPerTurnAround::total          9707                       # Reads before turning the bus around for writes
system.mem_ctrls.wrPerTurnAround::samples         9707                       # Writes before turning the bus around for reads
system.mem_ctrls.wrPerTurnAround::mean      16.013804                       # Writes before turning the bus around for reads
system.mem_ctrls.wrPerTurnAround::gmean     16.012316                       # Writes before turning the bus around for reads
system.mem_ctrls.wrPerTurnAround::stdev      0.238943                       # Writes before turning the bus around for reads
system.mem_ctrls.wrPerTurnAround::16             9665     99.57%     99.57% # Writes before turning the bus around for reads
system.mem_ctrls.wrPerTurnAround::17                7      0.07%     99.64% # Writes before turning the bus around for reads
system.mem_ctrls.wrPerTurnAround::18                9      0.09%     99.73% # Writes before turning the bus around for reads
system.mem_ctrls.wrPerTurnAround::19               13      0.13%     99.87% # Writes before turning the bus around for reads
system.mem_ctrls.wrPerTurnAround::20                5      0.05%     99.92% # Writes before turning the bus around for reads
system.mem_ctrls.wrPerTurnAround::22                7      0.07%     99.99% # Writes before turning the bus around for reads
system.mem_ctrls.wrPerTurnAround::24                1      0.01%    100.00% # Writes before turning the bus around for reads
system.mem_ctrls.wrPerTurnAround::total          9707                       # Writes before turning the bus around for reads
system.mem_ctrls.totQLat                   2888515250                       # Total ticks spent queuing
system.mem_ctrls.totMemAccLat              5824184000                       # Total ticks spent from burst creation until serviced by the DRAM
system.mem_ctrls.totBusLat                  782845000                       # Total ticks spent in databus transfers
system.mem_ctrls.avgQLat                     18448.83                       # Average queueing delay per DRAM burst
system.mem_ctrls.avgBusLat                    5000.00                       # Average bus latency per DRAM burst
system.mem_ctrls.avgMemAccLat                37198.83                       # Average memory access latency per DRAM burst
system.mem_ctrls.avgRdBW                       656.33                       # Average DRAM read bandwidth in MiByte/s
system.mem_ctrls.avgWrBW                       651.62                       # Average achieved write bandwidth in MiByte/s
system.mem_ctrls.avgRdBWSys                    656.33                       # Average system read bandwidth in MiByte/s
system.mem_ctrls.avgWrBWSys                    651.60                       # Average system write bandwidth in MiByte/s
system.mem_ctrls.peakBW                      12800.00                       # Theoretical peak bandwidth in MiByte/s
system.mem_ctrls.busUtil                        10.22                       # Data bus utilization in percentage
system.mem_ctrls.busUtilRead                     5.13                       # Data bus utilization in percentage for reads
system.mem_ctrls.busUtilWrite                    5.09                       # Data bus utilization in percentage for writes
system.mem_ctrls.avgRdQLen                       1.01                       # Average read queue length when enqueuing
system.mem_ctrls.avgWrQLen                      26.16                       # Average write queue length when enqueuing
system.mem_ctrls.readRowHits                   142917                       # Number of row buffer hits during reads
system.mem_ctrls.writeRowHits                  141533                       # Number of row buffer hits during writes
system.mem_ctrls.readRowHitRate                 91.28                       # Row buffer hit rate for reads
system.mem_ctrls.writeRowHitRate                91.05                       # Row buffer hit rate for writes
system.mem_ctrls.avgGap                      48932.32                       # Average gap between requests
system.mem_ctrls.pageHitRate                    91.17                       # Row buffer hit rate, read and write combined
system.mem_ctrls_0.actEnergy                 99196020                       # Energy for activate commands per rank (pJ)
system.mem_ctrls_0.preEnergy                 52727730                       # Energy for precharge commands per rank (pJ)
system.mem_ctrls_0.readEnergy               561782340                       # Energy for read commands per rank (pJ)
system.mem_ctrls_0.writeEnergy              406883340                       # Energy for write commands per rank (pJ)
system.mem_ctrls_0.refreshEnergy         752319360.000000                       # Energy for refresh commands per rank (pJ)
system.mem_ctrls_0.actBackEnergy           1532577240                       # Energy for active background per rank (pJ)
system.mem_ctrls_0.preBackEnergy             60947520                       # Energy for precharge background per rank (pJ)
system.mem_ctrls_0.actPowerDownEnergy      2101553520                       # Energy for active power-down per rank (pJ)
system.mem_ctrls_0.prePowerDownEnergy       306999840                       # Energy for precharge power-down per rank (pJ)
system.mem_ctrls_0.selfRefreshEnergy       1567330920                       # Energy for self refresh per rank (pJ)
system.mem_ctrls_0.totalEnergy             7442317830                       # Total energy per rank (pJ)
system.mem_ctrls_0.averagePower            487.466436                       # Core power per rank (mW)
system.mem_ctrls_0.totalIdleTime          11747642625                       # Total Idle time Per DRAM Rank
system.mem_ctrls_0.memoryStateTime::IDLE     41852500                       # Time in different power states
system.mem_ctrls_0.memoryStateTime::REF     318828000                       # Time in different power states
system.mem_ctrls_0.memoryStateTime::SREF   6339564000                       # Time in different power states
system.mem_ctrls_0.memoryStateTime::PRE_PDN    799431000                       # Time in different power states
system.mem_ctrls_0.memoryStateTime::ACT    3159021000                       # Time in different power states
system.mem_ctrls_0.memoryStateTime::ACT_PDN   4608647625                       # Time in different power states
system.mem_ctrls_1.actEnergy                 97618080                       # Energy for activate commands per rank (pJ)
system.mem_ctrls_1.preEnergy                 51885240                       # Energy for precharge commands per rank (pJ)
system.mem_ctrls_1.readEnergy               556120320                       # Energy for read commands per rank (pJ)
system.mem_ctrls_1.writeEnergy              404544780                       # Energy for write commands per rank (pJ)
system.mem_ctrls_1.refreshEnergy         746787600.000000                       # Energy for refresh commands per rank (pJ)
system.mem_ctrls_1.actBackEnergy           1505332380                       # Energy for active background per rank (pJ)
system.mem_ctrls_1.preBackEnergy             64308480                       # Energy for precharge background per rank (pJ)
system.mem_ctrls_1.actPowerDownEnergy      2065105440                       # Energy for active power-down per rank (pJ)
system.mem_ctrls_1.prePowerDownEnergy       316758720                       # Energy for precharge power-down per rank (pJ)
system.mem_ctrls_1.selfRefreshEnergy       1595414820                       # Energy for self refresh per rank (pJ)
system.mem_ctrls_1.totalEnergy             7403875860                       # Total energy per rank (pJ)
system.mem_ctrls_1.averagePower            484.948515                       # Core power per rank (mW)
system.mem_ctrls_1.totalIdleTime          11711225125                       # Total Idle time Per DRAM Rank
system.mem_ctrls_1.memoryStateTime::IDLE     46767500                       # Time in different power states
system.mem_ctrls_1.memoryStateTime::REF     316554000                       # Time in different power states
system.mem_ctrls_1.memoryStateTime::SREF   6445072375                       # Time in different power states
system.mem_ctrls_1.memoryStateTime::PRE_PDN    824959250                       # Time in different power states
system.mem_ctrls_1.memoryStateTime::ACT    3105254750                       # Time in different power states
system.mem_ctrls_1.memoryStateTime::ACT_PDN   4528736250                       # Time in different power states
system.pwrStateResidencyTicks::UNDEFINED  15267344125                       # Cumulative time (in ticks) in various power states
system.cpu0.branchPred.lookups                1314669                       # Number of BP lookups
system.cpu0.branchPred.condPredicted          1314669                       # Number of conditional branches predicted
system.cpu0.branchPred.condIncorrect             6972                       # Number of conditional branches incorrect
system.cpu0.branchPred.BTBLookups             1306274                       # Number of BTB lookups
system.cpu0.branchPred.BTBHits                      0                       # Number of BTB hits
system.cpu0.branchPred.BTBCorrect                   0                       # Number of correct BTB predictions (this stat may not work properly.
system.cpu0.branchPred.BTBHitPct             0.000000                       # BTB Hit Percentage
system.cpu0.branchPred.usedRAS                   4369                       # Number of times the RAS was used to get a target.
system.cpu0.branchPred.RASInCorrect               921                       # Number of incorrect RAS predictions.
system.cpu0.branchPred.indirectLookups        1306274                       # Number of indirect predictor lookups.
system.cpu0.branchPred.indirectHits           1267461                       # Number of indirect target hits.
system.cpu0.branchPred.indirectMisses           38813                       # Number of indirect misses.
system.cpu0.branchPredindirectMispredicted         4960                       # Number of mispredicted indirect branches.
system.cpu_voltage_domain.voltage                   1                       # Voltage in Volts
system.cpu_clk_domain.clock                       500                       # Clock period in ticks
system.cpu0.dtb.walker.pwrStateResidencyTicks::UNDEFINED  15267344125                       # Cumulative time (in ticks) in various power states
system.cpu0.dtb.rdAccesses                     350165                       # TLB accesses on read requests
system.cpu0.dtb.wrAccesses                    1300619                       # TLB accesses on write requests
system.cpu0.dtb.rdMisses                          854                       # TLB misses on read requests
system.cpu0.dtb.wrMisses                         2701                       # TLB misses on write requests
system.cpu0.apic_clk_domain.clock                8000                       # Clock period in ticks
system.cpu0.interrupts.pwrStateResidencyTicks::UNDEFINED  15267344125                       # Cumulative time (in ticks) in various power states
system.cpu0.itb.walker.pwrStateResidencyTicks::UNDEFINED  15267344125                       # Cumulative time (in ticks) in various power states
system.cpu0.itb.rdAccesses                          0                       # TLB accesses on read requests
system.cpu0.itb.wrAccesses                      52428                       # TLB accesses on write requests
system.cpu0.itb.rdMisses                            0                       # TLB misses on read requests
system.cpu0.itb.wrMisses                          298                       # TLB misses on write requests
system.cpu0.workload.numSyscalls                   67                       # Number of system calls
system.cpu0.pwrStateResidencyTicks::ON    15267344125                       # Cumulative time (in ticks) in various power states
system.cpu0.numCycles                        30534688                       # number of cpu cycles simulated
system.cpu0.numWorkItemsStarted                     0                       # number of work items this cpu started
system.cpu0.numWorkItemsCompleted                   0                       # number of work items this cpu completed
system.cpu0.fetch.icacheStallCycles             79343                       # Number of cycles fetch is stalled on an Icache miss
system.cpu0.fetch.Insts                       5745955                       # Number of instructions fetch has processed
system.cpu0.fetch.Branches                    1314669                       # Number of branches that fetch encountered
system.cpu0.fetch.predictedBranches           1271830                       # Number of branches that fetch has predicted taken
system.cpu0.fetch.Cycles                     30413246                       # Number of cycles fetch has run and was not squashing or blocked
system.cpu0.fetch.SquashCycles                  14604                       # Number of cycles fetch has spent squashing
system.cpu0.fetch.TlbCycles                         3                       # Number of cycles fetch has spent waiting for tlb
system.cpu0.fetch.MiscStallCycles                 186                       # Number of cycles fetch has spent waiting on interrupts, or bad addresses, or out of MSHRs
system.cpu0.fetch.PendingTrapStallCycles         1284                       # Number of stall cycles due to pending traps
system.cpu0.fetch.IcacheWaitRetryStallCycles           32                       # Number of stall cycles due to full MSHR
system.cpu0.fetch.CacheLines                    52229                       # Number of cache lines fetched
system.cpu0.fetch.IcacheSquashes                 2093                       # Number of outstanding Icache misses that were squashed
system.cpu0.fetch.rateDist::samples          30501396                       # Number of instructions fetched each cycle (Total)
system.cpu0.fetch.rateDist::mean             0.380043                       # Number of instructions fetched each cycle (Total)
system.cpu0.fetch.rateDist::stdev            1.652589                       # Number of instructions fetched each cycle (Total)
system.cpu0.fetch.rateDist::underflows              0      0.00%      0.00% # Number of instructions fetched each cycle (Total)
system.cpu0.fetch.rateDist::0                28822308     94.50%     94.50% # Number of instructions fetched each cycle (Total)
system.cpu0.fetch.rateDist::1                   39929      0.13%     94.63% # Number of instructions fetched each cycle (Total)
system.cpu0.fetch.rateDist::2                   42694      0.14%     94.77% # Number of instructions fetched each cycle (Total)
system.cpu0.fetch.rateDist::3                  224861      0.74%     95.50% # Number of instructions fetched each cycle (Total)
system.cpu0.fetch.rateDist::4                   27520      0.09%     95.59% # Number of instructions fetched each cycle (Total)
system.cpu0.fetch.rateDist::5                    8803      0.03%     95.62% # Number of instructions fetched each cycle (Total)
system.cpu0.fetch.rateDist::6                    9659      0.03%     95.65% # Number of instructions fetched each cycle (Total)
system.cpu0.fetch.rateDist::7                   25072      0.08%     95.74% # Number of instructions fetched each cycle (Total)
system.cpu0.fetch.rateDist::8                 1300550      4.26%    100.00% # Number of instructions fetched each cycle (Total)
system.cpu0.fetch.rateDist::overflows               0      0.00%    100.00% # Number of instructions fetched each cycle (Total)
system.cpu0.fetch.rateDist::min_value               0                       # Number of instructions fetched each cycle (Total)
system.cpu0.fetch.rateDist::max_value               8                       # Number of instructions fetched each cycle (Total)
system.cpu0.fetch.rateDist::total            30501396                       # Number of instructions fetched each cycle (Total)
system.cpu0.fetch.branchRate                 0.043055                       # Number of branch fetches per cycle
system.cpu0.fetch.rate                       0.188178                       # Number of inst fetches per cycle
system.cpu0.decode.IdleCycles                  420813                       # Number of cycles decode is idle
system.cpu0.decode.BlockedCycles             28619760                       # Number of cycles decode is blocked
system.cpu0.decode.RunCycles                   641196                       # Number of cycles decode is running
system.cpu0.decode.UnblockCycles               812325                       # Number of cycles decode is unblocking
system.cpu0.decode.SquashCycles                  7302                       # Number of cycles decode is squashing
system.cpu0.decode.DecodedInsts              11523750                       # Number of instructions handled by decode
system.cpu0.rename.SquashCycles                  7302                       # Number of cycles rename is squashing
system.cpu0.rename.IdleCycles                  698504                       # Number of cycles rename is idle
system.cpu0.rename.BlockCycles                 284366                       # Number of cycles rename is blocking
system.cpu0.rename.serializeStallCycles         16891                       # count of cycles rename stalled for serializing inst
system.cpu0.rename.RunCycles                  1174652                       # Number of cycles rename is running
system.cpu0.rename.UnblockCycles             28319681                       # Number of cycles rename is unblocking
system.cpu0.rename.RenamedInsts              11488467                       # Number of instructions processed by rename
system.cpu0.rename.ROBFullEvents                 1455                       # Number of times rename has blocked due to ROB full
system.cpu0.rename.IQFullEvents                 16812                       # Number of times rename has blocked due to IQ full
system.cpu0.rename.LQFullEvents                  4809                       # Number of times rename has blocked due to LQ full
system.cpu0.rename.SQFullEvents              28026585                       # Number of times rename has blocked due to SQ full
system.cpu0.rename.RenamedOperands           14625611                       # Number of destination operands rename has renamed
system.cpu0.rename.RenameLookups             24306566                       # Number of register rename lookups that rename has made
system.cpu0.rename.int_rename_lookups        13210617                       # Number of integer rename lookups
system.cpu0.rename.fp_rename_lookups           303043                       # Number of floating rename lookups
system.cpu0.rename.CommittedMaps             14349842                       # Number of HB maps that are committed
system.cpu0.rename.UndoneMaps                  275769                       # Number of HB maps that are undone due to squashing
system.cpu0.rename.serializingInsts               152                       # count of serializing insts renamed
system.cpu0.rename.tempSerializingInsts           166                       # count of temporary serializing insts renamed
system.cpu0.rename.skidInsts                  4995869                       # count of insts added to the skid buffer
system.cpu0.memDep0.insertedLoads              361358                       # Number of loads inserted to the mem dependence unit.
system.cpu0.memDep0.insertedStores            1309275                       # Number of stores inserted to the mem dependence unit.
system.cpu0.memDep0.conflictingLoads            20673                       # Number of conflicting loads.
system.cpu0.memDep0.conflictingStores           19181                       # Number of conflicting stores.
system.cpu0.iq.iqInstsAdded                  11425257                       # Number of instructions added to the IQ (excludes non-spec)
system.cpu0.iq.iqNonSpecInstsAdded                934                       # Number of non-speculative instructions added to the IQ
system.cpu0.iq.iqInstsIssued                 11360071                       # Number of instructions issued
system.cpu0.iq.iqSquashedInstsIssued             2003                       # Number of squashed instructions issued
system.cpu0.iq.iqSquashedInstsExamined         182669                       # Number of squashed instructions iterated over during squash; mainly for profiling
system.cpu0.iq.iqSquashedOperandsExamined       265557                       # Number of squashed operands that are examined and possibly removed from graph
system.cpu0.iq.iqSquashedNonSpecRemoved           807                       # Number of squashed non-spec instructions that were removed
system.cpu0.iq.issued_per_cycle::samples     30501396                       # Number of insts issued each cycle
system.cpu0.iq.issued_per_cycle::mean        0.372444                       # Number of insts issued each cycle
system.cpu0.iq.issued_per_cycle::stdev       1.248813                       # Number of insts issued each cycle
system.cpu0.iq.issued_per_cycle::underflows            0      0.00%      0.00% # Number of insts issued each cycle
system.cpu0.iq.issued_per_cycle::0           27418257     89.89%     89.89% # Number of insts issued each cycle
system.cpu0.iq.issued_per_cycle::1             469893      1.54%     91.43% # Number of insts issued each cycle
system.cpu0.iq.issued_per_cycle::2             559312      1.83%     93.27% # Number of insts issued each cycle
system.cpu0.iq.issued_per_cycle::3             347214      1.14%     94.40% # Number of insts issued each cycle
system.cpu0.iq.issued_per_cycle::4             328948      1.08%     95.48% # Number of insts issued each cycle
system.cpu0.iq.issued_per_cycle::5            1068180      3.50%     98.98% # Number of insts issued each cycle
system.cpu0.iq.issued_per_cycle::6             119037      0.39%     99.38% # Number of insts issued each cycle
system.cpu0.iq.issued_per_cycle::7             165442      0.54%     99.92% # Number of insts issued each cycle
system.cpu0.iq.issued_per_cycle::8              25113      0.08%    100.00% # Number of insts issued each cycle
system.cpu0.iq.issued_per_cycle::overflows            0      0.00%    100.00% # Number of insts issued each cycle
system.cpu0.iq.issued_per_cycle::min_value            0                       # Number of insts issued each cycle
system.cpu0.iq.issued_per_cycle::max_value            8                       # Number of insts issued each cycle
system.cpu0.iq.issued_per_cycle::total       30501396                       # Number of insts issued each cycle
system.cpu0.iq.fu_full::No_OpClass                  0      0.00%      0.00% # attempts to use FU when none available
system.cpu0.iq.fu_full::IntAlu                  73075     94.17%     94.17% # attempts to use FU when none available
system.cpu0.iq.fu_full::IntMult                     0      0.00%     94.17% # attempts to use FU when none available
system.cpu0.iq.fu_full::IntDiv                      0      0.00%     94.17% # attempts to use FU when none available
system.cpu0.iq.fu_full::FloatAdd                  486      0.63%     94.80% # attempts to use FU when none available
system.cpu0.iq.fu_full::FloatCmp                    0      0.00%     94.80% # attempts to use FU when none available
system.cpu0.iq.fu_full::FloatCvt                    0      0.00%     94.80% # attempts to use FU when none available
system.cpu0.iq.fu_full::FloatMult                   0      0.00%     94.80% # attempts to use FU when none available
system.cpu0.iq.fu_full::FloatMultAcc                0      0.00%     94.80% # attempts to use FU when none available
system.cpu0.iq.fu_full::FloatDiv                    0      0.00%     94.80% # attempts to use FU when none available
system.cpu0.iq.fu_full::FloatMisc                   0      0.00%     94.80% # attempts to use FU when none available
system.cpu0.iq.fu_full::FloatSqrt                   0      0.00%     94.80% # attempts to use FU when none available
system.cpu0.iq.fu_full::SimdAdd                     0      0.00%     94.80% # attempts to use FU when none available
system.cpu0.iq.fu_full::SimdAddAcc                  0      0.00%     94.80% # attempts to use FU when none available
system.cpu0.iq.fu_full::SimdAlu                     0      0.00%     94.80% # attempts to use FU when none available
system.cpu0.iq.fu_full::SimdCmp                     0      0.00%     94.80% # attempts to use FU when none available
system.cpu0.iq.fu_full::SimdCvt                     0      0.00%     94.80% # attempts to use FU when none available
system.cpu0.iq.fu_full::SimdMisc                    0      0.00%     94.80% # attempts to use FU when none available
system.cpu0.iq.fu_full::SimdMult                    0      0.00%     94.80% # attempts to use FU when none available
system.cpu0.iq.fu_full::SimdMultAcc                 0      0.00%     94.80% # attempts to use FU when none available
system.cpu0.iq.fu_full::SimdShift                   0      0.00%     94.80% # attempts to use FU when none available
system.cpu0.iq.fu_full::SimdShiftAcc                0      0.00%     94.80% # attempts to use FU when none available
system.cpu0.iq.fu_full::SimdSqrt                    0      0.00%     94.80% # attempts to use FU when none available
system.cpu0.iq.fu_full::SimdFloatAdd                0      0.00%     94.80% # attempts to use FU when none available
system.cpu0.iq.fu_full::SimdFloatAlu                0      0.00%     94.80% # attempts to use FU when none available
system.cpu0.iq.fu_full::SimdFloatCmp                0      0.00%     94.80% # attempts to use FU when none available
system.cpu0.iq.fu_full::SimdFloatCvt                0      0.00%     94.80% # attempts to use FU when none available
system.cpu0.iq.fu_full::SimdFloatDiv                0      0.00%     94.80% # attempts to use FU when none available
system.cpu0.iq.fu_full::SimdFloatMisc               0      0.00%     94.80% # attempts to use FU when none available
system.cpu0.iq.fu_full::SimdFloatMult               0      0.00%     94.80% # attempts to use FU when none available
system.cpu0.iq.fu_full::SimdFloatMultAcc            0      0.00%     94.80% # attempts to use FU when none available
system.cpu0.iq.fu_full::SimdFloatSqrt               0      0.00%     94.80% # attempts to use FU when none available
system.cpu0.iq.fu_full::MemRead                   779      1.00%     95.80% # attempts to use FU when none available
system.cpu0.iq.fu_full::MemWrite                  223      0.29%     96.09% # attempts to use FU when none available
system.cpu0.iq.fu_full::FloatMemRead             2783      3.59%     99.68% # attempts to use FU when none available
system.cpu0.iq.fu_full::FloatMemWrite             250      0.32%    100.00% # attempts to use FU when none available
system.cpu0.iq.fu_full::IprAccess                   0      0.00%    100.00% # attempts to use FU when none available
system.cpu0.iq.fu_full::InstPrefetch                0      0.00%    100.00% # attempts to use FU when none available
system.cpu0.iq.FU_type_0::No_OpClass             4499      0.04%      0.04% # Type of FU issued
system.cpu0.iq.FU_type_0::IntAlu              9619063     84.67%     84.71% # Type of FU issued
system.cpu0.iq.FU_type_0::IntMult                 118      0.00%     84.71% # Type of FU issued
system.cpu0.iq.FU_type_0::IntDiv                  357      0.00%     84.72% # Type of FU issued
system.cpu0.iq.FU_type_0::FloatAdd              80696      0.71%     85.43% # Type of FU issued
system.cpu0.iq.FU_type_0::FloatCmp                  0      0.00%     85.43% # Type of FU issued
system.cpu0.iq.FU_type_0::FloatCvt                  0      0.00%     85.43% # Type of FU issued
system.cpu0.iq.FU_type_0::FloatMult                 0      0.00%     85.43% # Type of FU issued
system.cpu0.iq.FU_type_0::FloatMultAcc              0      0.00%     85.43% # Type of FU issued
system.cpu0.iq.FU_type_0::FloatDiv                  0      0.00%     85.43% # Type of FU issued
system.cpu0.iq.FU_type_0::FloatMisc                 0      0.00%     85.43% # Type of FU issued
system.cpu0.iq.FU_type_0::FloatSqrt                 0      0.00%     85.43% # Type of FU issued
system.cpu0.iq.FU_type_0::SimdAdd                   0      0.00%     85.43% # Type of FU issued
system.cpu0.iq.FU_type_0::SimdAddAcc                0      0.00%     85.43% # Type of FU issued
system.cpu0.iq.FU_type_0::SimdAlu                   0      0.00%     85.43% # Type of FU issued
system.cpu0.iq.FU_type_0::SimdCmp                   0      0.00%     85.43% # Type of FU issued
system.cpu0.iq.FU_type_0::SimdCvt                   0      0.00%     85.43% # Type of FU issued
system.cpu0.iq.FU_type_0::SimdMisc                  0      0.00%     85.43% # Type of FU issued
system.cpu0.iq.FU_type_0::SimdMult                  0      0.00%     85.43% # Type of FU issued
system.cpu0.iq.FU_type_0::SimdMultAcc               0      0.00%     85.43% # Type of FU issued
system.cpu0.iq.FU_type_0::SimdShift                 0      0.00%     85.43% # Type of FU issued
system.cpu0.iq.FU_type_0::SimdShiftAcc              0      0.00%     85.43% # Type of FU issued
system.cpu0.iq.FU_type_0::SimdSqrt                  0      0.00%     85.43% # Type of FU issued
system.cpu0.iq.FU_type_0::SimdFloatAdd              0      0.00%     85.43% # Type of FU issued
system.cpu0.iq.FU_type_0::SimdFloatAlu              0      0.00%     85.43% # Type of FU issued
system.cpu0.iq.FU_type_0::SimdFloatCmp              0      0.00%     85.43% # Type of FU issued
system.cpu0.iq.FU_type_0::SimdFloatCvt              0      0.00%     85.43% # Type of FU issued
system.cpu0.iq.FU_type_0::SimdFloatDiv              0      0.00%     85.43% # Type of FU issued
system.cpu0.iq.FU_type_0::SimdFloatMisc             0      0.00%     85.43% # Type of FU issued
system.cpu0.iq.FU_type_0::SimdFloatMult             0      0.00%     85.43% # Type of FU issued
system.cpu0.iq.FU_type_0::SimdFloatMultAcc            0      0.00%     85.43% # Type of FU issued
system.cpu0.iq.FU_type_0::SimdFloatSqrt             0      0.00%     85.43% # Type of FU issued
system.cpu0.iq.FU_type_0::MemRead              306648      2.70%     88.13% # Type of FU issued
system.cpu0.iq.FU_type_0::MemWrite            1260642     11.10%     99.22% # Type of FU issued
system.cpu0.iq.FU_type_0::FloatMemRead          46507      0.41%     99.63% # Type of FU issued
system.cpu0.iq.FU_type_0::FloatMemWrite         41541      0.37%    100.00% # Type of FU issued
system.cpu0.iq.FU_type_0::IprAccess                 0      0.00%    100.00% # Type of FU issued
system.cpu0.iq.FU_type_0::InstPrefetch              0      0.00%    100.00% # Type of FU issued
system.cpu0.iq.FU_type_0::total              11360071                       # Type of FU issued
system.cpu0.iq.rate                          0.372038                       # Inst issue rate
system.cpu0.iq.fu_busy_cnt                      77596                       # FU busy when requested
system.cpu0.iq.fu_busy_rate                  0.006831                       # FU busy rate (busy events/executed inst)
system.cpu0.iq.int_inst_queue_reads          52924424                       # Number of integer instruction queue reads
system.cpu0.iq.int_inst_queue_writes         11402848                       # Number of integer instruction queue writes
system.cpu0.iq.int_inst_queue_wakeup_accesses     11151114                       # Number of integer instruction queue wakeup accesses
system.cpu0.iq.fp_inst_queue_reads             376713                       # Number of floating instruction queue reads
system.cpu0.iq.fp_inst_queue_writes            206211                       # Number of floating instruction queue writes
system.cpu0.iq.fp_inst_queue_wakeup_accesses       184605                       # Number of floating instruction queue wakeup accesses
system.cpu0.iq.vec_inst_queue_reads                 0                       # Number of vector instruction queue reads
system.cpu0.iq.vec_inst_queue_writes                0                       # Number of vector instruction queue writes
system.cpu0.iq.vec_inst_queue_wakeup_accesses            0                       # Number of vector instruction queue wakeup accesses
system.cpu0.iq.int_alu_accesses              11243110                       # Number of integer alu accesses
system.cpu0.iq.fp_alu_accesses                 190058                       # Number of floating point alu accesses
system.cpu0.iq.vec_alu_accesses                     0                       # Number of vector alu accesses
system.cpu0.iew.lsq.thread0.forwLoads            2548                       # Number of loads that had data forwarded from stores
system.cpu0.iew.lsq.thread0.invAddrLoads            0                       # Number of loads ignored due to an invalid address
system.cpu0.iew.lsq.thread0.squashedLoads        25283                       # Number of loads squashed
system.cpu0.iew.lsq.thread0.ignoredResponses           53                       # Number of memory responses ignored because the instruction is squashed
system.cpu0.iew.lsq.thread0.memOrderViolation          209                       # Number of memory ordering violations
system.cpu0.iew.lsq.thread0.squashedStores        14368                       # Number of stores squashed
system.cpu0.iew.lsq.thread0.invAddrSwpfs            0                       # Number of software prefetches ignored due to an invalid address
system.cpu0.iew.lsq.thread0.blockedLoads            0                       # Number of blocked loads due to partial load-store forwarding
system.cpu0.iew.lsq.thread0.rescheduledLoads           20                       # Number of loads that were rescheduled
system.cpu0.iew.lsq.thread0.cacheBlocked          631                       # Number of times an access to memory failed due to the cache being blocked
system.cpu0.iew.iewIdleCycles                       0                       # Number of cycles IEW is idle
system.cpu0.iew.iewSquashCycles                  7302                       # Number of cycles IEW is squashing
system.cpu0.iew.iewBlockCycles                  61367                       # Number of cycles IEW is blocking
system.cpu0.iew.iewUnblockCycles               182214                       # Number of cycles IEW is unblocking
system.cpu0.iew.iewDispatchedInsts           11426191                       # Number of instructions dispatched to IQ
system.cpu0.iew.iewDispSquashedInsts              859                       # Number of squashed instructions skipped by dispatch
system.cpu0.iew.iewDispLoadInsts               361358                       # Number of dispatched load instructions
system.cpu0.iew.iewDispStoreInsts             1309275                       # Number of dispatched store instructions
system.cpu0.iew.iewDispNonSpecInsts               408                       # Number of dispatched non-speculative instructions
system.cpu0.iew.iewIQFullEvents                   411                       # Number of times the IQ has become full, causing a stall
system.cpu0.iew.iewLSQFullEvents               181620                       # Number of times the LSQ has become full, causing a stall
system.cpu0.iew.memOrderViolationEvents           209                       # Number of memory order violations
system.cpu0.iew.predictedTakenIncorrect          1922                       # Number of branches that were predicted taken incorrectly
system.cpu0.iew.predictedNotTakenIncorrect         7009                       # Number of branches that were predicted not taken incorrectly
system.cpu0.iew.branchMispredicts                8931                       # Number of branch mispredicts detected at execute
system.cpu0.iew.iewExecutedInsts             11343774                       # Number of executed instructions
system.cpu0.iew.iewExecLoadInsts               350009                       # Number of load instructions executed
system.cpu0.iew.iewExecSquashedInsts            16297                       # Number of squashed instructions skipped in execute
system.cpu0.iew.exec_swp                            0                       # number of swp insts executed
system.cpu0.iew.exec_nop                            0                       # number of nop insts executed
system.cpu0.iew.exec_refs                     1650607                       # number of memory reference insts executed
system.cpu0.iew.exec_branches                 1286468                       # Number of branches executed
system.cpu0.iew.exec_stores                   1300598                       # Number of stores executed
system.cpu0.iew.exec_rate                    0.371505                       # Inst execution rate
system.cpu0.iew.wb_sent                      11339175                       # cumulative count of insts sent to commit
system.cpu0.iew.wb_count                     11335719                       # cumulative count of insts written-back
system.cpu0.iew.wb_producers                  8273696                       # num instructions producing a value
system.cpu0.iew.wb_consumers                 11615278                       # num instructions consuming a value
system.cpu0.iew.wb_rate                      0.371241                       # insts written-back per cycle
system.cpu0.iew.wb_fanout                    0.712311                       # average fanout of values written-back
system.cpu0.commit.commitSquashedInsts         182878                       # The number of squashed insts skipped by commit
system.cpu0.commit.commitNonSpecStalls            127                       # The number of times commit has been forced to stall to communicate backwards
system.cpu0.commit.branchMispredicts             7145                       # The number of times a branch was mispredicted
system.cpu0.commit.committed_per_cycle::samples     30471768                       # Number of insts commited each cycle
system.cpu0.commit.committed_per_cycle::mean     0.368982                       # Number of insts commited each cycle
system.cpu0.commit.committed_per_cycle::stdev     1.271975                       # Number of insts commited each cycle
system.cpu0.commit.committed_per_cycle::underflows            0      0.00%      0.00% # Number of insts commited each cycle
system.cpu0.commit.committed_per_cycle::0     27482750     90.19%     90.19% # Number of insts commited each cycle
system.cpu0.commit.committed_per_cycle::1       338393      1.11%     91.30% # Number of insts commited each cycle
system.cpu0.commit.committed_per_cycle::2       323194      1.06%     92.36% # Number of insts commited each cycle
system.cpu0.commit.committed_per_cycle::3      1148624      3.77%     96.13% # Number of insts commited each cycle
system.cpu0.commit.committed_per_cycle::4        63817      0.21%     96.34% # Number of insts commited each cycle
system.cpu0.commit.committed_per_cycle::5       731730      2.40%     98.74% # Number of insts commited each cycle
system.cpu0.commit.committed_per_cycle::6        72372      0.24%     98.98% # Number of insts commited each cycle
system.cpu0.commit.committed_per_cycle::7        22385      0.07%     99.05% # Number of insts commited each cycle
system.cpu0.commit.committed_per_cycle::8       288503      0.95%    100.00% # Number of insts commited each cycle
system.cpu0.commit.committed_per_cycle::overflows            0      0.00%    100.00% # Number of insts commited each cycle
system.cpu0.commit.committed_per_cycle::min_value            0                       # Number of insts commited each cycle
system.cpu0.commit.committed_per_cycle::max_value            8                       # Number of insts commited each cycle
system.cpu0.commit.committed_per_cycle::total     30471768                       # Number of insts commited each cycle
system.cpu0.commit.committedInsts             5556221                       # Number of instructions committed
system.cpu0.commit.committedOps              11243522                       # Number of ops (including micro ops) committed
system.cpu0.commit.swp_count                        0                       # Number of s/w prefetches committed
system.cpu0.commit.refs                       1630982                       # Number of memory references committed
system.cpu0.commit.loads                       336075                       # Number of loads committed
system.cpu0.commit.membars                         40                       # Number of memory barriers committed
system.cpu0.commit.branches                   1279272                       # Number of branches committed
system.cpu0.commit.vec_insts                        0                       # Number of committed Vector instructions.
system.cpu0.commit.fp_insts                    180923                       # Number of committed floating point instructions.
system.cpu0.commit.int_insts                 11148523                       # Number of committed integer instructions.
system.cpu0.commit.function_calls                1377                       # Number of function calls committed.
system.cpu0.commit.op_class_0::No_OpClass         2362      0.02%      0.02% # Class of committed instruction
system.cpu0.commit.op_class_0::IntAlu         9531199     84.77%     84.79% # Class of committed instruction
system.cpu0.commit.op_class_0::IntMult             91      0.00%     84.79% # Class of committed instruction
system.cpu0.commit.op_class_0::IntDiv             274      0.00%     84.79% # Class of committed instruction
system.cpu0.commit.op_class_0::FloatAdd         78614      0.70%     85.49% # Class of committed instruction
system.cpu0.commit.op_class_0::FloatCmp             0      0.00%     85.49% # Class of committed instruction
system.cpu0.commit.op_class_0::FloatCvt             0      0.00%     85.49% # Class of committed instruction
system.cpu0.commit.op_class_0::FloatMult            0      0.00%     85.49% # Class of committed instruction
system.cpu0.commit.op_class_0::FloatMultAcc            0      0.00%     85.49% # Class of committed instruction
system.cpu0.commit.op_class_0::FloatDiv             0      0.00%     85.49% # Class of committed instruction
system.cpu0.commit.op_class_0::FloatMisc            0      0.00%     85.49% # Class of committed instruction
system.cpu0.commit.op_class_0::FloatSqrt            0      0.00%     85.49% # Class of committed instruction
system.cpu0.commit.op_class_0::SimdAdd              0      0.00%     85.49% # Class of committed instruction
system.cpu0.commit.op_class_0::SimdAddAcc            0      0.00%     85.49% # Class of committed instruction
system.cpu0.commit.op_class_0::SimdAlu              0      0.00%     85.49% # Class of committed instruction
system.cpu0.commit.op_class_0::SimdCmp              0      0.00%     85.49% # Class of committed instruction
system.cpu0.commit.op_class_0::SimdCvt              0      0.00%     85.49% # Class of committed instruction
system.cpu0.commit.op_class_0::SimdMisc             0      0.00%     85.49% # Class of committed instruction
system.cpu0.commit.op_class_0::SimdMult             0      0.00%     85.49% # Class of committed instruction
system.cpu0.commit.op_class_0::SimdMultAcc            0      0.00%     85.49% # Class of committed instruction
system.cpu0.commit.op_class_0::SimdShift            0      0.00%     85.49% # Class of committed instruction
system.cpu0.commit.op_class_0::SimdShiftAcc            0      0.00%     85.49% # Class of committed instruction
system.cpu0.commit.op_class_0::SimdSqrt             0      0.00%     85.49% # Class of committed instruction
system.cpu0.commit.op_class_0::SimdFloatAdd            0      0.00%     85.49% # Class of committed instruction
system.cpu0.commit.op_class_0::SimdFloatAlu            0      0.00%     85.49% # Class of committed instruction
system.cpu0.commit.op_class_0::SimdFloatCmp            0      0.00%     85.49% # Class of committed instruction
system.cpu0.commit.op_class_0::SimdFloatCvt            0      0.00%     85.49% # Class of committed instruction
system.cpu0.commit.op_class_0::SimdFloatDiv            0      0.00%     85.49% # Class of committed instruction
system.cpu0.commit.op_class_0::SimdFloatMisc            0      0.00%     85.49% # Class of committed instruction
system.cpu0.commit.op_class_0::SimdFloatMult            0      0.00%     85.49% # Class of committed instruction
system.cpu0.commit.op_class_0::SimdFloatMultAcc            0      0.00%     85.49% # Class of committed instruction
system.cpu0.commit.op_class_0::SimdFloatSqrt            0      0.00%     85.49% # Class of committed instruction
system.cpu0.commit.op_class_0::MemRead         291755      2.59%     88.09% # Class of committed instruction
system.cpu0.commit.op_class_0::MemWrite       1253911     11.15%     99.24% # Class of committed instruction
system.cpu0.commit.op_class_0::FloatMemRead        44320      0.39%     99.64% # Class of committed instruction
system.cpu0.commit.op_class_0::FloatMemWrite        40996      0.36%    100.00% # Class of committed instruction
system.cpu0.commit.op_class_0::IprAccess            0      0.00%    100.00% # Class of committed instruction
system.cpu0.commit.op_class_0::InstPrefetch            0      0.00%    100.00% # Class of committed instruction
system.cpu0.commit.op_class_0::total         11243522                       # Class of committed instruction
system.cpu0.commit.bw_lim_events               288503                       # number cycles where commit BW limit reached
system.cpu0.rob.rob_reads                    41609665                       # The number of ROB reads
system.cpu0.rob.rob_writes                   22882977                       # The number of ROB writes
system.cpu0.timesIdled                            329                       # Number of times that the entire CPU went into an idle state and unscheduled itself
system.cpu0.idleCycles                          33292                       # Total number of cycles that the CPU has spent unscheduled due to idling
system.cpu0.committedInsts                    5556221                       # Number of Instructions Simulated
system.cpu0.committedOps                     11243522                       # Number of Ops (including micro ops) Simulated
system.cpu0.cpi                              5.495586                       # CPI: Cycles Per Instruction
system.cpu0.cpi_total                        5.495586                       # CPI: Total CPI of All Threads
system.cpu0.ipc                              0.181964                       # IPC: Instructions Per Cycle
system.cpu0.ipc_total                        0.181964                       # IPC: Total IPC of All Threads
system.cpu0.int_regfile_reads                12973896                       # number of integer regfile reads
system.cpu0.int_regfile_writes                8605333                       # number of integer regfile writes
system.cpu0.fp_regfile_reads                   283260                       # number of floating regfile reads
system.cpu0.fp_regfile_writes                  142312                       # number of floating regfile writes
system.cpu0.cc_regfile_reads                  6416399                       # number of cc regfile reads
system.cpu0.cc_regfile_writes                 5706459                       # number of cc regfile writes
system.cpu0.misc_regfile_reads                4231054                       # number of misc regfile reads
system.cpu0.dcache.tags.pwrStateResidencyTicks::UNDEFINED  15267344125                       # Cumulative time (in ticks) in various power states
system.cpu0.dcache.tags.replacements           156218                       # number of replacements
system.cpu0.dcache.tags.tagsinuse                1024                       # Cycle average of tags in use
system.cpu0.dcache.tags.total_refs            1471721                       # Total number of references to valid blocks.
system.cpu0.dcache.tags.sampled_refs           156218                       # Sample count of references to valid blocks.
system.cpu0.dcache.tags.avg_refs             9.420944                       # Average number of references to valid blocks.
system.cpu0.dcache.tags.warmup_cycle                0                       # Cycle when the warmup percentage was hit.
system.cpu0.dcache.tags.occ_blocks::cpu0.data         1024                       # Average occupied blocks per requestor
system.cpu0.dcache.tags.occ_percent::cpu0.data            1                       # Average percentage of cache occupancy
system.cpu0.dcache.tags.occ_percent::total            1                       # Average percentage of cache occupancy
system.cpu0.dcache.tags.occ_task_id_blocks::1024         1024                       # Occupied blocks per task id
system.cpu0.dcache.tags.age_task_id_blocks_1024::0           96                       # Occupied blocks per task id
system.cpu0.dcache.tags.age_task_id_blocks_1024::1          852                       # Occupied blocks per task id
system.cpu0.dcache.tags.age_task_id_blocks_1024::2           76                       # Occupied blocks per task id
system.cpu0.dcache.tags.occ_task_id_percent::1024            1                       # Percentage of cache occupancy per task id
system.cpu0.dcache.tags.tag_accesses          6721326                       # Number of tag accesses
system.cpu0.dcache.tags.data_accesses         6721326                       # Number of data accesses
system.cpu0.dcache.pwrStateResidencyTicks::UNDEFINED  15267344125                       # Cumulative time (in ticks) in various power states
system.cpu0.dcache.ReadReq_hits::cpu0.data       342422                       # number of ReadReq hits
system.cpu0.dcache.ReadReq_hits::total         342422                       # number of ReadReq hits
system.cpu0.dcache.WriteReq_hits::cpu0.data      1140218                       # number of WriteReq hits
system.cpu0.dcache.WriteReq_hits::total       1140218                       # number of WriteReq hits
system.cpu0.dcache.demand_hits::cpu0.data      1482640                       # number of demand (read+write) hits
system.cpu0.dcache.demand_hits::total         1482640                       # number of demand (read+write) hits
system.cpu0.dcache.overall_hits::cpu0.data      1482640                       # number of overall hits
system.cpu0.dcache.overall_hits::total        1482640                       # number of overall hits
system.cpu0.dcache.ReadReq_misses::cpu0.data         3936                       # number of ReadReq misses
system.cpu0.dcache.ReadReq_misses::total         3936                       # number of ReadReq misses
system.cpu0.dcache.WriteReq_misses::cpu0.data       154701                       # number of WriteReq misses
system.cpu0.dcache.WriteReq_misses::total       154701                       # number of WriteReq misses
system.cpu0.dcache.demand_misses::cpu0.data       158637                       # number of demand (read+write) misses
system.cpu0.dcache.demand_misses::total        158637                       # number of demand (read+write) misses
system.cpu0.dcache.overall_misses::cpu0.data       158637                       # number of overall misses
system.cpu0.dcache.overall_misses::total       158637                       # number of overall misses
system.cpu0.dcache.ReadReq_miss_latency::cpu0.data    358590500                       # number of ReadReq miss cycles
system.cpu0.dcache.ReadReq_miss_latency::total    358590500                       # number of ReadReq miss cycles
system.cpu0.dcache.WriteReq_miss_latency::cpu0.data  13957661498                       # number of WriteReq miss cycles
system.cpu0.dcache.WriteReq_miss_latency::total  13957661498                       # number of WriteReq miss cycles
system.cpu0.dcache.demand_miss_latency::cpu0.data  14316251998                       # number of demand (read+write) miss cycles
system.cpu0.dcache.demand_miss_latency::total  14316251998                       # number of demand (read+write) miss cycles
system.cpu0.dcache.overall_miss_latency::cpu0.data  14316251998                       # number of overall miss cycles
system.cpu0.dcache.overall_miss_latency::total  14316251998                       # number of overall miss cycles
system.cpu0.dcache.ReadReq_accesses::cpu0.data       346358                       # number of ReadReq accesses(hits+misses)
system.cpu0.dcache.ReadReq_accesses::total       346358                       # number of ReadReq accesses(hits+misses)
system.cpu0.dcache.WriteReq_accesses::cpu0.data      1294919                       # number of WriteReq accesses(hits+misses)
[...]
system.l2.demand_accesses::cpu0.data           156218                       # number of demand (read+write) accesses
system.l2.demand_accesses::total               156957                       # number of demand (read+write) accesses
system.l2.overall_accesses::cpu0.inst             739                       # number of overall (read+write) accesses
system.l2.overall_accesses::cpu0.data          156218                       # number of overall (read+write) accesses
system.l2.overall_accesses::total              156957                       # number of overall (read+write) accesses
system.l2.ReadExReq_miss_rate::cpu0.data     0.999884                       # miss rate for ReadExReq accesses
system.l2.ReadExReq_miss_rate::total         0.999884                       # miss rate for ReadExReq accesses
system.l2.ReadCleanReq_miss_rate::cpu0.inst     0.548038                       # miss rate for ReadCleanReq accesses
system.l2.ReadCleanReq_miss_rate::total      0.548038                       # miss rate for ReadCleanReq accesses
system.l2.ReadSharedReq_miss_rate::cpu0.data     0.976501                       # miss rate for ReadSharedReq accesses
system.l2.ReadSharedReq_miss_rate::total     0.976501                       # miss rate for ReadSharedReq accesses
system.l2.demand_miss_rate::cpu0.inst        0.548038                       # miss rate for demand accesses
system.l2.demand_miss_rate::cpu0.data        0.999654                       # miss rate for demand accesses
system.l2.demand_miss_rate::total            0.997528                       # miss rate for demand accesses
system.l2.overall_miss_rate::cpu0.inst       0.548038                       # miss rate for overall accesses
system.l2.overall_miss_rate::cpu0.data       0.999654                       # miss rate for overall accesses
system.l2.overall_miss_rate::total           0.997528                       # miss rate for overall accesses
system.l2.ReadExReq_avg_miss_latency::cpu0.data 87733.781390                       # average ReadExReq miss latency
system.l2.ReadExReq_avg_miss_latency::total 87733.781390                       # average ReadExReq miss latency
system.l2.ReadCleanReq_avg_miss_latency::cpu0.inst 109537.037037                       # average ReadCleanReq miss latency
system.l2.ReadCleanReq_avg_miss_latency::total 109537.037037                       # average ReadCleanReq miss latency
system.l2.ReadSharedReq_avg_miss_latency::cpu0.data 106506.684492                       # average ReadSharedReq miss latency
system.l2.ReadSharedReq_avg_miss_latency::total 106506.684492                       # average ReadSharedReq miss latency
system.l2.demand_avg_miss_latency::cpu0.inst 109537.037037                       # average overall miss latency
system.l2.demand_avg_miss_latency::cpu0.data 87913.619656                       # average overall miss latency
system.l2.demand_avg_miss_latency::total 87969.553360                       # average overall miss latency
system.l2.overall_avg_miss_latency::cpu0.inst 109537.037037                       # average overall miss latency
system.l2.overall_avg_miss_latency::cpu0.data 87913.619656                       # average overall miss latency
system.l2.overall_avg_miss_latency::total 87969.553360                       # average overall miss latency
system.l2.blocked_cycles::no_mshrs                  0                       # number of cycles access was blocked
system.l2.blocked_cycles::no_targets                0                       # number of cycles access was blocked
system.l2.blocked::no_mshrs                         0                       # number of cycles access was blocked
system.l2.blocked::no_targets                       0                       # number of cycles access was blocked
system.l2.avg_blocked_cycles::no_mshrs            nan                       # average number of cycles each access was blocked
system.l2.avg_blocked_cycles::no_targets          nan                       # average number of cycles each access was blocked
system.l2.writebacks::writebacks               155441                       # number of writebacks
system.l2.writebacks::total                    155441                       # number of writebacks
system.l2.ReadExReq_mshr_misses::cpu0.data       154668                       # number of ReadExReq MSHR misses
system.l2.ReadExReq_mshr_misses::total         154668                       # number of ReadExReq MSHR misses
system.l2.ReadCleanReq_mshr_misses::cpu0.inst          405                       # number of ReadCleanReq MSHR misses
system.l2.ReadCleanReq_mshr_misses::total          405                       # number of ReadCleanReq MSHR misses
system.l2.ReadSharedReq_mshr_misses::cpu0.data         1496                       # number of ReadSharedReq MSHR misses
system.l2.ReadSharedReq_mshr_misses::total         1496                       # number of ReadSharedReq MSHR misses
system.l2.demand_mshr_misses::cpu0.inst           405                       # number of demand (read+write) MSHR misses
system.l2.demand_mshr_misses::cpu0.data        156164                       # number of demand (read+write) MSHR misses
system.l2.demand_mshr_misses::total            156569                       # number of demand (read+write) MSHR misses
system.l2.overall_mshr_misses::cpu0.inst          405                       # number of overall MSHR misses
system.l2.overall_mshr_misses::cpu0.data       156164                       # number of overall MSHR misses
system.l2.overall_mshr_misses::total           156569                       # number of overall MSHR misses
system.l2.ReadExReq_mshr_miss_latency::cpu0.data  12022928500                       # number of ReadExReq MSHR miss cycles
system.l2.ReadExReq_mshr_miss_latency::total  12022928500                       # number of ReadExReq MSHR miss cycles
system.l2.ReadCleanReq_mshr_miss_latency::cpu0.inst     40312500                       # number of ReadCleanReq MSHR miss cycles
system.l2.ReadCleanReq_mshr_miss_latency::total     40312500                       # number of ReadCleanReq MSHR miss cycles
system.l2.ReadSharedReq_mshr_miss_latency::cpu0.data    144374000                       # number of ReadSharedReq MSHR miss cycles
system.l2.ReadSharedReq_mshr_miss_latency::total    144374000                       # number of ReadSharedReq MSHR miss cycles
system.l2.demand_mshr_miss_latency::cpu0.inst     40312500                       # number of demand (read+write) MSHR miss cycles
system.l2.demand_mshr_miss_latency::cpu0.data  12167302500                       # number of demand (read+write) MSHR miss cycles
system.l2.demand_mshr_miss_latency::total  12207615000                       # number of demand (read+write) MSHR miss cycles
system.l2.overall_mshr_miss_latency::cpu0.inst     40312500                       # number of overall MSHR miss cycles
system.l2.overall_mshr_miss_latency::cpu0.data  12167302500                       # number of overall MSHR miss cycles
system.l2.overall_mshr_miss_latency::total  12207615000                       # number of overall MSHR miss cycles
system.l2.ReadExReq_mshr_miss_rate::cpu0.data     0.999884                       # mshr miss rate for ReadExReq accesses
system.l2.ReadExReq_mshr_miss_rate::total     0.999884                       # mshr miss rate for ReadExReq accesses
system.l2.ReadCleanReq_mshr_miss_rate::cpu0.inst     0.548038                       # mshr miss rate for ReadCleanReq accesses
system.l2.ReadCleanReq_mshr_miss_rate::total     0.548038                       # mshr miss rate for ReadCleanReq accesses
system.l2.ReadSharedReq_mshr_miss_rate::cpu0.data     0.976501                       # mshr miss rate for ReadSharedReq accesses
system.l2.ReadSharedReq_mshr_miss_rate::total     0.976501                       # mshr miss rate for ReadSharedReq accesses
system.l2.demand_mshr_miss_rate::cpu0.inst     0.548038                       # mshr miss rate for demand accesses
system.l2.demand_mshr_miss_rate::cpu0.data     0.999654                       # mshr miss rate for demand accesses
system.l2.demand_mshr_miss_rate::total       0.997528                       # mshr miss rate for demand accesses
system.l2.overall_mshr_miss_rate::cpu0.inst     0.548038                       # mshr miss rate for overall accesses
system.l2.overall_mshr_miss_rate::cpu0.data     0.999654                       # mshr miss rate for overall accesses
system.l2.overall_mshr_miss_rate::total      0.997528                       # mshr miss rate for overall accesses
system.l2.ReadExReq_avg_mshr_miss_latency::cpu0.data 77733.781390                       # average ReadExReq mshr miss latency
system.l2.ReadExReq_avg_mshr_miss_latency::total 77733.781390                       # average ReadExReq mshr miss latency
system.l2.ReadCleanReq_avg_mshr_miss_latency::cpu0.inst 99537.037037                       # average ReadCleanReq mshr miss latency
system.l2.ReadCleanReq_avg_mshr_miss_latency::total 99537.037037                       # average ReadCleanReq mshr miss latency
system.l2.ReadSharedReq_avg_mshr_miss_latency::cpu0.data 96506.684492                       # average ReadSharedReq mshr miss latency
system.l2.ReadSharedReq_avg_mshr_miss_latency::total 96506.684492                       # average ReadSharedReq mshr miss latency
system.l2.demand_avg_mshr_miss_latency::cpu0.inst 99537.037037                       # average overall mshr miss latency
system.l2.demand_avg_mshr_miss_latency::cpu0.data 77913.619656                       # average overall mshr miss latency
system.l2.demand_avg_mshr_miss_latency::total 77969.553360                       # average overall mshr miss latency
system.l2.overall_avg_mshr_miss_latency::cpu0.inst 99537.037037                       # average overall mshr miss latency
system.l2.overall_avg_mshr_miss_latency::cpu0.data 77913.619656                       # average overall mshr miss latency
system.l2.overall_avg_mshr_miss_latency::total 77969.553360                       # average overall mshr miss latency
system.membus.snoop_filter.tot_requests        313249                       # Total number of requests made to the snoop filter.
system.membus.snoop_filter.hit_single_requests       156694                       # Number of requests hitting in the snoop filter with a single holder of the requested data.
system.membus.snoop_filter.hit_multi_requests            0                       # Number of requests hitting in the snoop filter with multiple (>1) holders of the requested data.
system.membus.snoop_filter.tot_snoops               0                       # Total number of snoops made to the snoop filter.
system.membus.snoop_filter.hit_single_snoops            0                       # Number of snoops hitting in the snoop filter with a single holder of the requested data.
system.membus.snoop_filter.hit_multi_snoops            0                       # Number of snoops hitting in the snoop filter with multiple (>1) holders of the requested data.
system.membus.pwrStateResidencyTicks::UNDEFINED  15267344125                       # Cumulative time (in ticks) in various power states
system.membus.trans_dist::ReadResp               1901                       # Transaction distribution
system.membus.trans_dist::WritebackDirty       155441                       # Transaction distribution
system.membus.trans_dist::CleanEvict             1239                       # Transaction distribution
system.membus.trans_dist::ReadExReq            154668                       # Transaction distribution
system.membus.trans_dist::ReadExResp           154668                       # Transaction distribution
system.membus.trans_dist::ReadSharedReq          1901                       # Transaction distribution
system.membus.pkt_count_system.l2.mem_side::system.mem_ctrls.port       469818                       # Packet count per connected master and slave (bytes)
system.membus.pkt_count_system.l2.mem_side::total       469818                       # Packet count per connected master and slave (bytes)
system.membus.pkt_count::total                 469818                       # Packet count per connected master and slave (bytes)
system.membus.pkt_size_system.l2.mem_side::system.mem_ctrls.port     19968640                       # Cumulative packet size per connected master and slave (bytes)
system.membus.pkt_size_system.l2.mem_side::total     19968640                       # Cumulative packet size per connected master and slave (bytes)
system.membus.pkt_size::total                19968640                       # Cumulative packet size per connected master and slave (bytes)
system.membus.snoops                                0                       # Total snoops (count)
system.membus.snoopTraffic                          0                       # Total snoop traffic (bytes)
system.membus.snoop_fanout::samples            156569                       # Request fanout histogram
system.membus.snoop_fanout::mean                    0                       # Request fanout histogram
system.membus.snoop_fanout::stdev                   0                       # Request fanout histogram
system.membus.snoop_fanout::underflows              0      0.00%      0.00% # Request fanout histogram
system.membus.snoop_fanout::0                  156569    100.00%    100.00% # Request fanout histogram
system.membus.snoop_fanout::1                       0      0.00%    100.00% # Request fanout histogram
system.membus.snoop_fanout::overflows               0      0.00%    100.00% # Request fanout histogram
system.membus.snoop_fanout::min_value               0                       # Request fanout histogram
system.membus.snoop_fanout::max_value               0                       # Request fanout histogram
system.membus.snoop_fanout::total              156569                       # Request fanout histogram
system.membus.reqLayer4.occupancy           935628500                       # Layer occupancy (ticks)
system.membus.reqLayer4.utilization               6.1                       # Layer utilization (%)
system.membus.respLayer1.occupancy          823517750                       # Layer occupancy (ticks)
system.membus.respLayer1.utilization              5.4                       # Layer utilization (%)
system.tol2bus.snoop_filter.tot_requests       313922                       # Total number of requests made to the snoop filter.
system.tol2bus.snoop_filter.hit_single_requests       156959                       # Number of requests hitting in the snoop filter with a single holder of the requested data.
system.tol2bus.snoop_filter.hit_multi_requests          117                       # Number of requests hitting in the snoop filter with multiple (>1) holders of the requested data.
system.tol2bus.snoop_filter.tot_snoops            607                       # Total number of snoops made to the snoop filter.
system.tol2bus.snoop_filter.hit_single_snoops          607                       # Number of snoops hitting in the snoop filter with a single holder of the requested data.
system.tol2bus.snoop_filter.hit_multi_snoops            0                       # Number of snoops hitting in the snoop filter with multiple (>1) holders of the requested data.
system.tol2bus.pwrStateResidencyTicks::UNDEFINED  15267344125                       # Cumulative time (in ticks) in various power states
system.tol2bus.trans_dist::ReadResp              2275                       # Transaction distribution
system.tol2bus.trans_dist::WritebackDirty       310576                       # Transaction distribution
system.tol2bus.trans_dist::WritebackClean          740                       # Transaction distribution
system.tol2bus.trans_dist::CleanEvict            2852                       # Transaction distribution
system.tol2bus.trans_dist::UpgradeReq               3                       # Transaction distribution
system.tol2bus.trans_dist::UpgradeResp              3                       # Transaction distribution
system.tol2bus.trans_dist::ReadExReq           154686                       # Transaction distribution
system.tol2bus.trans_dist::ReadExResp          154686                       # Transaction distribution
system.tol2bus.trans_dist::ReadCleanReq           743                       # Transaction distribution
system.tol2bus.trans_dist::ReadSharedReq         1532                       # Transaction distribution
system.tol2bus.pkt_count_system.cpu0.icache.mem_side::system.l2.cpu_side         2222                       # Packet count per connected master and slave (bytes)
system.tol2bus.pkt_count_system.cpu0.dcache.mem_side::system.l2.cpu_side       468660                       # Packet count per connected master and slave (bytes)
system.tol2bus.pkt_count::total                470882                       # Packet count per connected master and slave (bytes)
system.tol2bus.pkt_size_system.cpu0.icache.mem_side::system.l2.cpu_side        94656                       # Cumulative packet size per connected master and slave (bytes)
system.tol2bus.pkt_size_system.cpu0.dcache.mem_side::system.l2.cpu_side     19926592                       # Cumulative packet size per connected master and slave (bytes)
system.tol2bus.pkt_size::total               20021248                       # Cumulative packet size per connected master and slave (bytes)
system.tol2bus.snoops                          157214                       # Total snoops (count)
system.tol2bus.snoopTraffic                   9948480                       # Total snoop traffic (bytes)
system.tol2bus.snoop_fanout::samples           314174                       # Request fanout histogram
system.tol2bus.snoop_fanout::mean            0.002304                       # Request fanout histogram
system.tol2bus.snoop_fanout::stdev           0.047949                       # Request fanout histogram
system.tol2bus.snoop_fanout::underflows             0      0.00%      0.00% # Request fanout histogram
system.tol2bus.snoop_fanout::0                 313450     99.77%     99.77% # Request fanout histogram
system.tol2bus.snoop_fanout::1                    724      0.23%    100.00% # Request fanout histogram
system.tol2bus.snoop_fanout::2                      0      0.00%    100.00% # Request fanout histogram
system.tol2bus.snoop_fanout::3                      0      0.00%    100.00% # Request fanout histogram
system.tol2bus.snoop_fanout::4                      0      0.00%    100.00% # Request fanout histogram
system.tol2bus.snoop_fanout::5                      0      0.00%    100.00% # Request fanout histogram
system.tol2bus.snoop_fanout::6                      0      0.00%    100.00% # Request fanout histogram
system.tol2bus.snoop_fanout::7                      0      0.00%    100.00% # Request fanout histogram
system.tol2bus.snoop_fanout::8                      0      0.00%    100.00% # Request fanout histogram
system.tol2bus.snoop_fanout::overflows              0      0.00%    100.00% # Request fanout histogram
system.tol2bus.snoop_fanout::min_value              0                       # Request fanout histogram
system.tol2bus.snoop_fanout::max_value              1                       # Request fanout histogram
system.tol2bus.snoop_fanout::total             314174                       # Request fanout histogram
system.tol2bus.reqLayer0.occupancy          312836000                       # Layer occupancy (ticks)
system.tol2bus.reqLayer0.utilization              2.0                       # Layer utilization (%)
system.tol2bus.respLayer0.occupancy           1114500                       # Layer occupancy (ticks)
system.tol2bus.respLayer0.utilization             0.0                       # Layer utilization (%)
system.tol2bus.respLayer1.occupancy         234329997                       # Layer occupancy (ticks)
system.tol2bus.respLayer1.utilization             1.5                       # Layer utilization (%)

---------- End Simulation Statistics   ----------
