
---------- Begin Simulation Statistics ----------
sim_seconds                                  0.015267                       # Number of seconds simulated
sim_ticks                                 15267344125                       # Number of ticks simulated
final_tick                               6381749844250                       # Number of ticks from beginning of simulation (restored from checkpoints and never reset)
sim_freq                                 1000000000000                       # Frequency of simulated ticks
host_inst_rate                              132386785                       # Simulator instruction rate (inst/s)
host_op_rate                                246045806                       # Simulator op (including micro ops) rate (op/s)
host_tick_rate                              348352673                       # Simulator tick rate (ticks/s)
host_mem_usage                                1248940                       # Number of bytes of host memory used
host_seconds                                    43.83                       # Real time elapsed on the host
sim_insts                                  5802148180                       # Number of instructions simulated
sim_ops                                   10783512219                       # Number of ops (including micro ops) simulated
system.voltage_domain.voltage                       1                       # Voltage in Volts
system.clk_domain.clock                          1000                       # Clock period in ticks
system.mem_ctrls.pwrStateResidencyTicks::UNDEFINED  15267344125                       # Cumulative time (in ticks) in various power states
system.mem_ctrls.bytes_read::cpu0.data       12458496                       # Number of bytes read from this memory
system.mem_ctrls.bytes_read::total           12458496                       # Number of bytes read from this memory
system.mem_ctrls.bytes_written::writebacks        24512                       # Number of bytes written to this memory
system.mem_ctrls.bytes_written::total           24512                       # Number of bytes written to this memory
system.mem_ctrls.num_reads::cpu0.data          194664                       # Number of read requests responded to by this memory
system.mem_ctrls.num_reads::total              194664                       # Number of read requests responded to by this memory
system.mem_ctrls.num_writes::writebacks           383                       # Number of write requests responded to by this memory
system.mem_ctrls.num_writes::total                383                       # Number of write requests responded to by this memory
system.mem_ctrls.bw_read::cpu0.data         816022479                       # Total read bandwidth from this memory (bytes/s)
system.mem_ctrls.bw_read::total             816022479                       # Total read bandwidth from this memory (bytes/s)
system.mem_ctrls.bw_write::writebacks         1605518                       # Write bandwidth from this memory (bytes/s)
system.mem_ctrls.bw_write::total              1605518                       # Write bandwidth from this memory (bytes/s)
system.mem_ctrls.bw_total::writebacks         1605518                       # Total bandwidth to/from this memory (bytes/s)
system.mem_ctrls.bw_total::cpu0.data        816022479                       # Total bandwidth to/from this memory (bytes/s)
system.mem_ctrls.bw_total::total            817627997                       # Total bandwidth to/from this memory (bytes/s)
system.mem_ctrls.readReqs                      194663                       # Number of read requests accepted
system.mem_ctrls.writeReqs                        383                       # Number of write requests accepted
system.mem_ctrls.readBursts                    194663                       # Number of DRAM read bursts, including those serviced by the write queue
system.mem_ctrls.writeBursts                      383                       # Number of DRAM write bursts, including those merged in the write queue
system.mem_ctrls.bytesReadDRAM               12454912                       # Total number of bytes read from DRAM
system.mem_ctrls.bytesReadWrQ                    3520                       # Total number of bytes read from write queue
system.mem_ctrls.bytesWritten                   24576                       # Total number of bytes written to DRAM
system.mem_ctrls.bytesReadSys                12458432                       # Total read bytes from the system interface side
system.mem_ctrls.bytesWrittenSys                24512                       # Total written bytes from the system interface side
system.mem_ctrls.servicedByWrQ                     55                       # Number of DRAM read bursts serviced by the write queue
system.mem_ctrls.mergedWrBursts                     4                       # Number of DRAM write bursts merged with an existing one
system.mem_ctrls.neitherReadNorWriteReqs            0                       # Number of requests that are neither read nor write
system.mem_ctrls.perBankRdBursts::0             11926                       # Per bank write bursts
system.mem_ctrls.perBankRdBursts::1             12334                       # Per bank write bursts
system.mem_ctrls.perBankRdBursts::2             11998                       # Per bank write bursts
system.mem_ctrls.perBankRdBursts::3             12353                       # Per bank write bursts
system.mem_ctrls.perBankRdBursts::4             12637                       # Per bank write bursts
system.mem_ctrls.perBankRdBursts::5             12295                       # Per bank write bursts
system.mem_ctrls.perBankRdBursts::6             12511                       # Per bank write bursts
system.mem_ctrls.perBankRdBursts::7             11974                       # Per bank write bursts
system.mem_ctrls.perBankRdBursts::8             12121                       # Per bank write bursts
system.mem_ctrls.perBankRdBursts::9             12103                       # Per bank write bursts
system.mem_ctrls.perBankRdBursts::10            12136                       # Per bank write bursts
system.mem_ctrls.perBankRdBursts::11            12294                       # Per bank write bursts
system.mem_ctrls.perBankRdBursts::12            11895                       # Per bank write bursts
system.mem_ctrls.perBankRdBursts::13            12179                       # Per bank write bursts
system.mem_ctrls.perBankRdBursts::14            12018                       # Per bank write bursts
system.mem_ctrls.perBankRdBursts::15            11834                       # Per bank write bursts
system.mem_ctrls.perBankWrBursts::0                28                       # Per bank write bursts
system.mem_ctrls.perBankWrBursts::1               128                       # Per bank write bursts
system.mem_ctrls.perBankWrBursts::2                58                       # Per bank write bursts
system.mem_ctrls.perBankWrBursts::3               127                       # Per bank write bursts
system.mem_ctrls.perBankWrBursts::4                11                       # Per bank write bursts
system.mem_ctrls.perBankWrBursts::5                 0                       # Per bank write bursts
system.mem_ctrls.perBankWrBursts::6                 0                       # Per bank write bursts
system.mem_ctrls.perBankWrBursts::7                 0                       # Per bank write bursts
system.mem_ctrls.perBankWrBursts::8                22                       # Per bank write bursts
system.mem_ctrls.perBankWrBursts::9                 0                       # Per bank write bursts
system.mem_ctrls.perBankWrBursts::10                0                       # Per bank write bursts
system.mem_ctrls.perBankWrBursts::11                0                       # Per bank write bursts
system.mem_ctrls.perBankWrBursts::12               10                       # Per bank write bursts
system.mem_ctrls.perBankWrBursts::13                0                       # Per bank write bursts
system.mem_ctrls.perBankWrBursts::14                0                       # Per bank write bursts
system.mem_ctrls.perBankWrBursts::15                0                       # Per bank write bursts
system.mem_ctrls.numRdRetry                         0                       # Number of times read queue was full causing retry
system.mem_ctrls.numWrRetry                         0                       # Number of times write queue was full causing retry
system.mem_ctrls.totGap                   15267254000                       # Total gap between requests
system.mem_ctrls.readPktSize::0                     0                       # Read request sizes (log2)
system.mem_ctrls.readPktSize::1                     0                       # Read request sizes (log2)
system.mem_ctrls.readPktSize::2                     0                       # Read request sizes (log2)
system.mem_ctrls.readPktSize::3                     0                       # Read request sizes (log2)
system.mem_ctrls.readPktSize::4                     0                       # Read request sizes (log2)
system.mem_ctrls.readPktSize::5                     0                       # Read request sizes (log2)
system.mem_ctrls.readPktSize::6                194663                       # Read request sizes (log2)
system.mem_ctrls.writePktSize::0                    0                       # Write request sizes (log2)
system.mem_ctrls.writePktSize::1                    0                       # Write request sizes (log2)
system.mem_ctrls.writePktSize::2                    0                       # Write request sizes (log2)
system.mem_ctrls.writePktSize::3                    0                       # Write request sizes (log2)
system.mem_ctrls.writePktSize::4                    0                       # Write request sizes (log2)
system.mem_ctrls.writePktSize::5                    0                       # Write request sizes (log2)
system.mem_ctrls.writePktSize::6                  383                       # Write request sizes (log2)
system.mem_ctrls.rdQLenPdf::0                  147890                       # What read queue length does an incoming req see
system.mem_ctrls.rdQLenPdf::1                   44058                       # What read queue length does an incoming req see
system.mem_ctrls.rdQLenPdf::2                    2640                       # What read queue length does an incoming req see
system.mem_ctrls.rdQLenPdf::3                      20                       # What read queue length does an incoming req see
system.mem_ctrls.rdQLenPdf::4                       0                       # What read queue length does an incoming req see
system.mem_ctrls.rdQLenPdf::5                       0                       # What read queue length does an incoming req see
system.mem_ctrls.rdQLenPdf::6                       0                       # What read queue length does an incoming req see
system.mem_ctrls.rdQLenPdf::7                       0                       # What read queue length does an incoming req see
system.mem_ctrls.rdQLenPdf::8                       0                       # What read queue length does an incoming req see
system.mem_ctrls.rdQLenPdf::9                       0                       # What read queue length does an incoming req see
system.mem_ctrls.rdQLenPdf::10                      0                       # What read queue length does an incoming req see
system.mem_ctrls.rdQLenPdf::11                      0                       # What read queue length does an incoming req see
system.mem_ctrls.rdQLenPdf::12                      0                       # What read queue length does an incoming req see
system.mem_ctrls.rdQLenPdf::13                      0                       # What read queue length does an incoming req see
system.mem_ctrls.rdQLenPdf::14                      0                       # What read queue length does an incoming req see
system.mem_ctrls.rdQLenPdf::15                      0                       # What read queue length does an incoming req see
system.mem_ctrls.rdQLenPdf::16                      0                       # What read queue length does an incoming req see
system.mem_ctrls.rdQLenPdf::17                      0                       # What read queue length does an incoming req see
system.mem_ctrls.rdQLenPdf::18                      0                       # What read queue length does an incoming req see
system.mem_ctrls.rdQLenPdf::19                      0                       # What read queue length does an incoming req see
system.mem_ctrls.rdQLenPdf::20                      0                       # What read queue length does an incoming req see
system.mem_ctrls.rdQLenPdf::21                      0                       # What read queue length does an incoming req see
system.mem_ctrls.rdQLenPdf::22                      0                       # What read queue length does an incoming req see
system.mem_ctrls.rdQLenPdf::23                      0                       # What read queue length does an incoming req see
system.mem_ctrls.rdQLenPdf::24                      0                       # What read queue length does an incoming req see
system.mem_ctrls.rdQLenPdf::25                      0                       # What read queue length does an incoming req see
system.mem_ctrls.rdQLenPdf::26                      0                       # What read queue length does an incoming req see
system.mem_ctrls.rdQLenPdf::27                      0                       # What read queue length does an incoming req see
system.mem_ctrls.rdQLenPdf::28                      0                       # What read queue length does an incoming req see
system.mem_ctrls.rdQLenPdf::29                      0                       # What read queue length does an incoming req see
system.mem_ctrls.rdQLenPdf::30                      0                       # What read queue length does an incoming req see
system.mem_ctrls.rdQLenPdf::31                      0                       # What read queue length does an incoming req see
system.mem_ctrls.wrQLenPdf::0                       0                       # What write queue length does an incoming req see
system.mem_ctrls.wrQLenPdf::1                       0                       # What write queue length does an incoming req see
system.mem_ctrls.wrQLenPdf::2                       0                       # What write queue length does an incoming req see
system.mem_ctrls.wrQLenPdf::3                       0                       # What write queue length does an incoming req see
system.mem_ctrls.wrQLenPdf::4                       0                       # What write queue length does an incoming req see
system.mem_ctrls.wrQLenPdf::5                       0                       # What write queue length does an incoming req see
system.mem_ctrls.wrQLenPdf::6                       0                       # What write queue length does an incoming req see
system.mem_ctrls.wrQLenPdf::7                       0                       # What write queue length does an incoming req see
system.mem_ctrls.wrQLenPdf::8                       0                       # What write queue length does an incoming req see
system.mem_ctrls.wrQLenPdf::9                       0                       # What write queue length does an incoming req see
system.mem_ctrls.wrQLenPdf::10                      0                       # What write queue length does an incoming req see
system.mem_ctrls.wrQLenPdf::11                      0                       # What write queue length does an incoming req see
system.mem_ctrls.wrQLenPdf::12                      0                       # What write queue length does an incoming req see
system.mem_ctrls.wrQLenPdf::13                      0                       # What write queue length does an incoming req see
system.mem_ctrls.wrQLenPdf::14                      0                       # What write queue length does an incoming req see
system.mem_ctrls.wrQLenPdf::15                      0                       # What write queue length does an incoming req see
system.mem_ctrls.wrQLenPdf::16                      0                       # What write queue length does an incoming req see
system.mem_ctrls.wrQLenPdf::17                     24                       # What write queue length does an incoming req see
system.mem_ctrls.wrQLenPdf::18                     24                       # What write queue length does an incoming req see
system.mem_ctrls.wrQLenPdf::19                     24                       # What write queue length does an incoming req see
system.mem_ctrls.wrQLenPdf::20                     24                       # What write queue length does an incoming req see
system.mem_ctrls.wrQLenPdf::21                     24                       # What write queue length does an incoming req see
system.mem_ctrls.wrQLenPdf::22                     24                       # What write queue length does an incoming req see
system.mem_ctrls.wrQLenPdf::23                     24                       # What write queue length does an incoming req see
system.mem_ctrls.wrQLenPdf::24                     24                       # What write queue length does an incoming req see
system.mem_ctrls.wrQLenPdf::25                     23                       # What write queue length does an incoming req see
system.mem_ctrls.wrQLenPdf::26                     23                       # What write queue length does an incoming req see
system.mem_ctrls.wrQLenPdf::27                     23                       # What write queue length does an incoming req see
system.mem_ctrls.wrQLenPdf::28                     23                       # What write queue length does an incoming req see
system.mem_ctrls.wrQLenPdf::29                     23                       # What write queue length does an incoming req see
system.mem_ctrls.wrQLenPdf::30                     24                       # What write queue length does an incoming req see
system.mem_ctrls.wrQLenPdf::31                     24                       # What write queue length does an incoming req see
system.mem_ctrls.wrQLenPdf::32                     24                       # What write queue length does an incoming req see
system.mem_ctrls.wrQLenPdf::33                      0                       # What write queue length does an incoming req see
system.mem_ctrls.wrQLenPdf::34                      0                       # What write queue length does an incoming req see
system.mem_ctrls.wrQLenPdf::35                      0                       # What write queue length does an incoming req see
system.mem_ctrls.wrQLenPdf::36                      0                       # What write queue length does an incoming req see
system.mem_ctrls.wrQLenPdf::37                      0                       # What write queue length does an incoming req see
system.mem_ctrls.wrQLenPdf::38                      0                       # What write queue length does an incoming req see
system.mem_ctrls.wrQLenPdf::39                      0                       # What write queue length does an incoming req see
system.mem_ctrls.wrQLenPdf::40                      0                       # What write queue length does an incoming req see
system.mem_ctrls.wrQLenPdf::41                      0                       # What write queue length does an incoming req see
system.mem_ctrls.wrQLenPdf::42                      0                       # What write queue length does an incoming req see
system.mem_ctrls.wrQLenPdf::43                      0                       # What write queue length does an incoming req see
system.mem_ctrls.wrQLenPdf::44                      0                       # What write queue length does an incoming req see
system.mem_ctrls.wrQLenPdf::45                      0                       # What write queue length does an incoming req see
system.mem_ctrls.wrQLenPdf::46                      0                       # What write queue length does an incoming req see
system.mem_ctrls.wrQLenPdf::47                      0                       # What write queue length does an incoming req see
system.mem_ctrls.wrQLenPdf::48                      0                       # What write queue length does an incoming req see
system.mem_ctrls.wrQLenPdf::49                      0                       # What write queue length does an incoming req see
system.mem_ctrls.wrQLenPdf::50                      0                       # What write queue length does an incoming req see
system.mem_ctrls.wrQLenPdf::51                      0                       # What write queue length does an incoming req see
system.mem_ctrls.wrQLenPdf::52                      0                       # What write queue length does an incoming req see
system.mem_ctrls.wrQLenPdf::53                      0                       # What write queue length does an incoming req see
system.mem_ctrls.wrQLenPdf::54                      0                       # What write queue length does an incoming req see
system.mem_ctrls.wrQLenPdf::55                      0                       # What write queue length does an incoming req see
system.mem_ctrls.wrQLenPdf::56                      0                       # What write queue length does an incoming req see
system.mem_ctrls.wrQLenPdf::57                      0                       # What write queue length does an incoming req see
system.mem_ctrls.wrQLenPdf::58                      0                       # What write queue length does an incoming req see
system.mem_ctrls.wrQLenPdf::59                      0                       # What write queue length does an incoming req see
system.mem_ctrls.wrQLenPdf::60                      0                       # What write queue length does an incoming req see
system.mem_ctrls.wrQLenPdf::61                      0                       # What write queue length does an incoming req see
system.mem_ctrls.wrQLenPdf::62                      0                       # What write queue length does an incoming req see
system.mem_ctrls.wrQLenPdf::63                      0                       # What write queue length does an incoming req see
system.mem_ctrls.bytesPerActivate::samples        96704                       # Bytes accessed per row activation
system.mem_ctrls.bytesPerActivate::mean    129.047651                       # Bytes accessed per row activation
system.mem_ctrls.bytesPerActivate::gmean   111.003644                       # Bytes accessed per row activation
system.mem_ctrls.bytesPerActivate::stdev    76.837705                       # Bytes accessed per row activation
system.mem_ctrls.bytesPerActivate::0-127        41112     42.51%     42.51% # Bytes accessed per row activation
system.mem_ctrls.bytesPerActivate::128-255        44620     46.14%     88.65% # Bytes accessed per row activation
system.mem_ctrls.bytesPerActivate::256-383         9525      9.85%     98.50% # Bytes accessed per row activation
system.mem_ctrls.bytesPerActivate::384-511         1260      1.30%     99.81% # Bytes accessed per row activation
system.mem_ctrls.bytesPerActivate::512-639          156      0.16%     99.97% # Bytes accessed per row activation
system.mem_ctrls.bytesPerActivate::640-767           18      0.02%     99.99% # Bytes accessed per row activation
system.mem_ctrls.bytesPerActivate::768-895            1      0.00%     99.99% # Bytes accessed per row activation
system.mem_ctrls.bytesPerActivate::896-1023            4      0.00%     99.99% # Bytes accessed per row activation
system.mem_ctrls.bytesPerActivate::1024-1151            8      0.01%    100.00% # Bytes accessed per row activation
system.mem_ctrls.bytesPerActivate::total        96704                       # Bytes accessed per row activation
system.mem_ctrls.rdPerTurnAround::samples           24                       # Reads before turning the bus around for writes
system.mem_ctrls.rdPerTurnAround::mean    8168.583333                       # Reads before turning the bus around for writes
system.mem_ctrls.rdPerTurnAround::gmean   7864.231529                       # Reads before turning the bus around for writes
system.mem_ctrls.rdPerTurnAround::stdev   2187.640975                       # Reads before turning the bus around for writes
system.mem_ctrls.rdPerTurnAround::4096-4607            2      8.33%      8.33% # Reads before turning the bus around for writes
system.mem_ctrls.rdPerTurnAround::5120-5631            1      4.17%     12.50% # Reads before turning the bus around for writes
system.mem_ctrls.rdPerTurnAround::5632-6143            3     12.50%     25.00% # Reads before turning the bus around for writes
system.mem_ctrls.rdPerTurnAround::6144-6655            1      4.17%     29.17% # Reads before turning the bus around for writes
system.mem_ctrls.rdPerTurnAround::7168-7679            3     12.50%     41.67% # Reads before turning the bus around for writes
system.mem_ctrls.rdPerTurnAround::7680-8191            1      4.17%     45.83% # Reads before turning the bus around for writes
system.mem_ctrls.rdPerTurnAround::8192-8703            3     12.50%     58.33% # Reads before turning the bus around for writes
system.mem_ctrls.rdPerTurnAround::8704-9215            1      4.17%     62.50% # Reads before turning the bus around for writes
system.mem_ctrls.rdPerTurnAround::9216-9727            2      8.33%     70.83% # Reads before turning the bus around for writes
system.mem_ctrls.rdPerTurnAround::9728-10239            3     12.50%     83.33% # Reads before turning the bus around for writes
system.mem_ctrls.rdPerTurnAround::10240-10751            3     12.50%     95.83% # Reads before turning the bus around for writes
system.mem_ctrls.rdPerTurnAround::12288-12799            1      4.17%    100.00% # Reads before turning the bus around for writes
system.mem_ctrls.rdPerTurnAround::total            24                       # Reads before turning the bus around for writes
system.mem_ctrls.wrPerTurnAround::samples           24                       # Writes before turning the bus around for reads
system.mem_ctrls.wrPerTurnAround::mean             16                       # Writes before turning the bus around for reads
system.mem_ctrls.wrPerTurnAround::gmean     16.000000                       # Writes before turning the bus around for reads
system.mem_ctrls.wrPerTurnAround::16               24    100.00%    100.00% # Writes before turning the bus around for reads
system.mem_ctrls.wrPerTurnAround::total            24                       # Writes before turning the bus around for reads
system.mem_ctrls.totQLat                   4801231250                       # Total ticks spent queuing
system.mem_ctrls.totMemAccLat              8450131250                       # Total ticks spent from burst creation until serviced by the DRAM
system.mem_ctrls.totBusLat                  973040000                       # Total ticks spent in databus transfers
system.mem_ctrls.avgQLat                     24671.29                       # Average queueing delay per DRAM burst
system.mem_ctrls.avgBusLat                    5000.00                       # Average bus latency per DRAM burst
system.mem_ctrls.avgMemAccLat                43421.29                       # Average memory access latency per DRAM burst
system.mem_ctrls.avgRdBW                       815.79                       # Average DRAM read bandwidth in MiByte/s
system.mem_ctrls.avgWrBW                         1.61                       # Average achieved write bandwidth in MiByte/s
system.mem_ctrls.avgRdBWSys                    816.02                       # Average system read bandwidth in MiByte/s
system.mem_ctrls.avgWrBWSys                      1.61                       # Average system write bandwidth in MiByte/s
system.mem_ctrls.peakBW                      12800.00                       # Theoretical peak bandwidth in MiByte/s
system.mem_ctrls.busUtil                         6.39                       # Data bus utilization in percentage
system.mem_ctrls.busUtilRead                     6.37                       # Data bus utilization in percentage for reads
system.mem_ctrls.busUtilWrite                    0.01                       # Data bus utilization in percentage for writes
system.mem_ctrls.avgRdQLen                       1.31                       # Average read queue length when enqueuing
system.mem_ctrls.avgWrQLen                      25.67                       # Average write queue length when enqueuing
system.mem_ctrls.readRowHits                    97956                       # Number of row buffer hits during reads
system.mem_ctrls.writeRowHits                     331                       # Number of row buffer hits during writes
system.mem_ctrls.readRowHitRate                 50.34                       # Row buffer hit rate for reads
system.mem_ctrls.writeRowHitRate                87.34                       # Row buffer hit rate for writes
system.mem_ctrls.avgGap                      78275.15                       # Average gap between requests
system.mem_ctrls.pageHitRate                    50.41                       # Row buffer hit rate, read and write combined
system.mem_ctrls_0.actEnergy                347632320                       # Energy for activate commands per rank (pJ)
system.mem_ctrls_0.preEnergy                184770960                       # Energy for precharge commands per rank (pJ)
system.mem_ctrls_0.readEnergy               699927060                       # Energy for read commands per rank (pJ)
system.mem_ctrls_0.writeEnergy                1837440                       # Energy for write commands per rank (pJ)
system.mem_ctrls_0.refreshEnergy         1205309040.000000                       # Energy for refresh commands per rank (pJ)
system.mem_ctrls_0.actBackEnergy           1636992690                       # Energy for active background per rank (pJ)
system.mem_ctrls_0.preBackEnergy             24254880                       # Energy for precharge background per rank (pJ)
system.mem_ctrls_0.actPowerDownEnergy      5210676660                       # Energy for active power-down per rank (pJ)
system.mem_ctrls_0.prePowerDownEnergy        71946720                       # Energy for precharge power-down per rank (pJ)
system.mem_ctrls_0.selfRefreshEnergy                0                       # Energy for self refresh per rank (pJ)
system.mem_ctrls_0.totalEnergy             9383347770                       # Total energy per rank (pJ)
system.mem_ctrls_0.averagePower            614.602494                       # Core power per rank (mW)
system.mem_ctrls_0.totalIdleTime          11614345500                       # Total Idle time Per DRAM Rank
system.mem_ctrls_0.memoryStateTime::IDLE      8910000                       # Time in different power states
system.mem_ctrls_0.memoryStateTime::REF     509866000                       # Time in different power states
system.mem_ctrls_0.memoryStateTime::SREF            0                       # Time in different power states
system.mem_ctrls_0.memoryStateTime::PRE_PDN    187468250                       # Time in different power states
system.mem_ctrls_0.memoryStateTime::ACT    3133854375                       # Time in different power states
system.mem_ctrls_0.memoryStateTime::ACT_PDN  11427245500                       # Time in different power states
system.mem_ctrls_1.actEnergy                342848520                       # Energy for activate commands per rank (pJ)
system.mem_ctrls_1.preEnergy                182220720                       # Energy for precharge commands per rank (pJ)
system.mem_ctrls_1.readEnergy               689581200                       # Energy for read commands per rank (pJ)
system.mem_ctrls_1.writeEnergy                 167040                       # Energy for write commands per rank (pJ)
system.mem_ctrls_1.refreshEnergy         1205309040.000000                       # Energy for refresh commands per rank (pJ)
system.mem_ctrls_1.actBackEnergy           1614981570                       # Energy for active background per rank (pJ)
system.mem_ctrls_1.preBackEnergy             24490560                       # Energy for precharge background per rank (pJ)
system.mem_ctrls_1.actPowerDownEnergy      5177474730                       # Energy for active power-down per rank (pJ)
system.mem_ctrls_1.prePowerDownEnergy       118206240                       # Energy for precharge power-down per rank (pJ)
system.mem_ctrls_1.selfRefreshEnergy                0                       # Energy for self refresh per rank (pJ)
system.mem_ctrls_1.totalEnergy             9355279620                       # Total energy per rank (pJ)
system.mem_ctrls_1.averagePower            612.764050                       # Core power per rank (mW)
system.mem_ctrls_1.totalIdleTime          11660509875                       # Total Idle time Per DRAM Rank
system.mem_ctrls_1.memoryStateTime::IDLE      9569000                       # Time in different power states
system.mem_ctrls_1.memoryStateTime::REF     509860000                       # Time in different power states
system.mem_ctrls_1.memoryStateTime::SREF            0                       # Time in different power states
system.mem_ctrls_1.memoryStateTime::PRE_PDN    307477750                       # Time in different power states
system.mem_ctrls_1.memoryStateTime::ACT    3087349750                       # Time in different power states
system.mem_ctrls_1.memoryStateTime::ACT_PDN  11353087625                       # Time in different power states
system.pwrStateResidencyTicks::UNDEFINED  15267344125                       # Cumulative time (in ticks) in various power states
system.cpu0.branchPred.lookups                1355101                       # Number of BP lookups
system.cpu0.branchPred.condPredicted          1355101                       # Number of conditional branches predicted
system.cpu0.branchPred.condIncorrect            61994                       # Number of conditional branches incorrect
system.cpu0.branchPred.BTBLookups             1071448                       # Number of BTB lookups
system.cpu0.branchPred.BTBHits                      0                       # Number of BTB hits
system.cpu0.branchPred.BTBCorrect                   0                       # Number of correct BTB predictions (this stat may not work properly.
system.cpu0.branchPred.BTBHitPct             0.000000                       # BTB Hit Percentage
system.cpu0.branchPred.usedRAS                  49548                       # Number of times the RAS was used to get a target.
system.cpu0.branchPred.RASInCorrect              8767                       # Number of incorrect RAS predictions.
system.cpu0.branchPred.indirectLookups        1071448                       # Number of indirect predictor lookups.
system.cpu0.branchPred.indirectHits            561259                       # Number of indirect target hits.
system.cpu0.branchPred.indirectMisses          510189                       # Number of indirect misses.
system.cpu0.branchPredindirectMispredicted        19318                       # Number of mispredicted indirect branches.
system.cpu_voltage_domain.voltage                   1                       # Voltage in Volts
system.cpu_clk_domain.clock                       500                       # Clock period in ticks
system.cpu0.dtb.walker.pwrStateResidencyTicks::UNDEFINED  15267344125                       # Cumulative time (in ticks) in various power states
system.cpu0.dtb.rdAccesses                     690045                       # TLB accesses on read requests
system.cpu0.dtb.wrAccesses                      52045                       # TLB accesses on write requests
system.cpu0.dtb.rdMisses                       139781                       # TLB misses on read requests
system.cpu0.dtb.wrMisses                          895                       # TLB misses on write requests
system.cpu0.apic_clk_domain.clock                8000                       # Clock period in ticks
system.cpu0.interrupts.pwrStateResidencyTicks::UNDEFINED  15267344125                       # Cumulative time (in ticks) in various power states
system.cpu0.itb.walker.pwrStateResidencyTicks::UNDEFINED  15267344125                       # Cumulative time (in ticks) in various power states
system.cpu0.itb.rdAccesses                          0                       # TLB accesses on read requests
system.cpu0.itb.wrAccesses                    1086278                       # TLB accesses on write requests
system.cpu0.itb.rdMisses                            0                       # TLB misses on read requests
system.cpu0.itb.wrMisses                         7344                       # TLB misses on write requests
system.cpu0.workload.numSyscalls                    0                       # Number of system calls
system.cpu0.pwrStateResidencyTicks::ON    15267344125                       # Cumulative time (in ticks) in various power states
system.cpu0.numCycles                        30534688                       # number of cpu cycles simulated
system.cpu0.numWorkItemsStarted                     0                       # number of work items this cpu started
system.cpu0.numWorkItemsCompleted                   0                       # number of work items this cpu completed
system.cpu0.fetch.icacheStallCycles           1113490                       # Number of cycles fetch is stalled on an Icache miss
system.cpu0.fetch.Insts                       4075504                       # Number of instructions fetch has processed
system.cpu0.fetch.Branches                    1355101                       # Number of branches that fetch encountered
system.cpu0.fetch.predictedBranches            610807                       # Number of branches that fetch has predicted taken
system.cpu0.fetch.Cycles                     29222296                       # Number of cycles fetch has run and was not squashing or blocked
system.cpu0.fetch.SquashCycles                 129490                       # Number of cycles fetch has spent squashing
system.cpu0.fetch.TlbCycles                      4510                       # Number of cycles fetch has spent waiting for tlb
system.cpu0.fetch.MiscStallCycles                1817                       # Number of cycles fetch has spent waiting on interrupts, or bad addresses, or out of MSHRs
system.cpu0.fetch.PendingTrapStallCycles        61775                       # Number of stall cycles due to pending traps
system.cpu0.fetch.CacheLines                  1078934                       # Number of cache lines fetched
system.cpu0.fetch.IcacheSquashes                 6382                       # Number of outstanding Icache misses that were squashed
system.cpu0.fetch.ItlbSquashes                     13                       # Number of outstanding ITLB misses that were squashed
system.cpu0.fetch.rateDist::samples          30468633                       # Number of instructions fetched each cycle (Total)
system.cpu0.fetch.rateDist::mean             0.270472                       # Number of instructions fetched each cycle (Total)
system.cpu0.fetch.rateDist::stdev            1.314852                       # Number of instructions fetched each cycle (Total)
system.cpu0.fetch.rateDist::underflows              0      0.00%      0.00% # Number of instructions fetched each cycle (Total)
system.cpu0.fetch.rateDist::0                28902666     94.86%     94.86% # Number of instructions fetched each cycle (Total)
system.cpu0.fetch.rateDist::1                   16200      0.05%     94.91% # Number of instructions fetched each cycle (Total)
system.cpu0.fetch.rateDist::2                  523985      1.72%     96.63% # Number of instructions fetched each cycle (Total)
system.cpu0.fetch.rateDist::3                   29270      0.10%     96.73% # Number of instructions fetched each cycle (Total)
system.cpu0.fetch.rateDist::4                  113386      0.37%     97.10% # Number of instructions fetched each cycle (Total)
system.cpu0.fetch.rateDist::5                   78366      0.26%     97.36% # Number of instructions fetched each cycle (Total)
system.cpu0.fetch.rateDist::6                   84232      0.28%     97.64% # Number of instructions fetched each cycle (Total)
system.cpu0.fetch.rateDist::7                   26057      0.09%     97.72% # Number of instructions fetched each cycle (Total)
system.cpu0.fetch.rateDist::8                  694471      2.28%    100.00% # Number of instructions fetched each cycle (Total)
system.cpu0.fetch.rateDist::overflows               0      0.00%    100.00% # Number of instructions fetched each cycle (Total)
system.cpu0.fetch.rateDist::min_value               0                       # Number of instructions fetched each cycle (Total)
system.cpu0.fetch.rateDist::max_value               8                       # Number of instructions fetched each cycle (Total)
system.cpu0.fetch.rateDist::total            30468633                       # Number of instructions fetched each cycle (Total)
system.cpu0.fetch.branchRate                 0.044379                       # Number of branch fetches per cycle
system.cpu0.fetch.rate                       0.133471                       # Number of inst fetches per cycle
system.cpu0.decode.IdleCycles                  557766                       # Number of cycles decode is idle
system.cpu0.decode.BlockedCycles             28836966                       # Number of cycles decode is blocked
system.cpu0.decode.RunCycles                   722070                       # Number of cycles decode is running
system.cpu0.decode.UnblockCycles               287086                       # Number of cycles decode is unblocking
system.cpu0.decode.SquashCycles                 64745                       # Number of cycles decode is squashing
system.cpu0.decode.DecodedInsts               6711868                       # Number of instructions handled by decode
system.cpu0.rename.SquashCycles                 64745                       # Number of cycles rename is squashing
system.cpu0.rename.IdleCycles                  646919                       # Number of cycles rename is idle
system.cpu0.rename.BlockCycles               27439134                       # Number of cycles rename is blocking
system.cpu0.rename.serializeStallCycles         22676                       # count of cycles rename stalled for serializing inst
system.cpu0.rename.RunCycles                   848157                       # Number of cycles rename is running
system.cpu0.rename.UnblockCycles              1447002                       # Number of cycles rename is unblocking
system.cpu0.rename.RenamedInsts               6416678                       # Number of instructions processed by rename
system.cpu0.rename.ROBFullEvents               124243                       # Number of times rename has blocked due to ROB full
system.cpu0.rename.IQFullEvents                993976                       # Number of times rename has blocked due to IQ full
system.cpu0.rename.LQFullEvents                423198                       # Number of times rename has blocked due to LQ full
system.cpu0.rename.SQFullEvents                   455                       # Number of times rename has blocked due to SQ full
system.cpu0.rename.RenamedOperands            7645671                       # Number of destination operands rename has renamed
system.cpu0.rename.RenameLookups             17690558                       # Number of register rename lookups that rename has made
system.cpu0.rename.int_rename_lookups         8518926                       # Number of integer rename lookups
system.cpu0.rename.fp_rename_lookups            33654                       # Number of floating rename lookups
system.cpu0.rename.CommittedMaps              2750976                       # Number of HB maps that are committed
system.cpu0.rename.UndoneMaps                 4894670                       # Number of HB maps that are undone due to squashing
system.cpu0.rename.serializingInsts               312                       # count of serializing insts renamed
system.cpu0.rename.tempSerializingInsts           395                       # count of temporary serializing insts renamed
system.cpu0.rename.skidInsts                  1875812                       # count of insts added to the skid buffer
system.cpu0.memDep0.insertedLoads             1136377                       # Number of loads inserted to the mem dependence unit.
system.cpu0.memDep0.insertedStores              77565                       # Number of stores inserted to the mem dependence unit.
system.cpu0.memDep0.conflictingLoads             4913                       # Number of conflicting loads.
system.cpu0.memDep0.conflictingStores            5471                       # Number of conflicting stores.
system.cpu0.iq.iqInstsAdded                   6081283                       # Number of instructions added to the IQ (excludes non-spec)
system.cpu0.iq.iqNonSpecInstsAdded               4957                       # Number of non-speculative instructions added to the IQ
system.cpu0.iq.iqInstsIssued                  4485234                       # Number of instructions issued
system.cpu0.iq.iqSquashedInstsIssued             6234                       # Number of squashed instructions issued
system.cpu0.iq.iqSquashedInstsExamined        3793966                       # Number of squashed instructions iterated over during squash; mainly for profiling
system.cpu0.iq.iqSquashedOperandsExamined      7333958                       # Number of squashed operands that are examined and possibly removed from graph
system.cpu0.iq.iqSquashedNonSpecRemoved          4957                       # Number of squashed non-spec instructions that were removed
system.cpu0.iq.issued_per_cycle::samples     30468633                       # Number of insts issued each cycle
system.cpu0.iq.issued_per_cycle::mean        0.147208                       # Number of insts issued each cycle
system.cpu0.iq.issued_per_cycle::stdev       0.698354                       # Number of insts issued each cycle
system.cpu0.iq.issued_per_cycle::underflows            0      0.00%      0.00% # Number of insts issued each cycle
system.cpu0.iq.issued_per_cycle::0           28594757     93.85%     93.85% # Number of insts issued each cycle
system.cpu0.iq.issued_per_cycle::1             766655      2.52%     96.37% # Number of insts issued each cycle
system.cpu0.iq.issued_per_cycle::2             400629      1.31%     97.68% # Number of insts issued each cycle
system.cpu0.iq.issued_per_cycle::3             271515      0.89%     98.57% # Number of insts issued each cycle
system.cpu0.iq.issued_per_cycle::4             240830      0.79%     99.36% # Number of insts issued each cycle
system.cpu0.iq.issued_per_cycle::5              83157      0.27%     99.64% # Number of insts issued each cycle
system.cpu0.iq.issued_per_cycle::6              70373      0.23%     99.87% # Number of insts issued each cycle
system.cpu0.iq.issued_per_cycle::7              24303      0.08%     99.95% # Number of insts issued each cycle
system.cpu0.iq.issued_per_cycle::8              16414      0.05%    100.00% # Number of insts issued each cycle
system.cpu0.iq.issued_per_cycle::overflows            0      0.00%    100.00% # Number of insts issued each cycle
system.cpu0.iq.issued_per_cycle::min_value            0                       # Number of insts issued each cycle
system.cpu0.iq.issued_per_cycle::max_value            8                       # Number of insts issued each cycle
system.cpu0.iq.issued_per_cycle::total       30468633                       # Number of insts issued each cycle
system.cpu0.iq.fu_full::No_OpClass                  0      0.00%      0.00% # attempts to use FU when none available
system.cpu0.iq.fu_full::IntAlu                  10482     63.81%     63.81% # attempts to use FU when none available
system.cpu0.iq.fu_full::IntMult                     0      0.00%     63.81% # attempts to use FU when none available
system.cpu0.iq.fu_full::IntDiv                      0      0.00%     63.81% # attempts to use FU when none available
system.cpu0.iq.fu_full::FloatAdd                 1030      6.27%     70.08% # attempts to use FU when none available
system.cpu0.iq.fu_full::FloatCmp                    0      0.00%     70.08% # attempts to use FU when none available
system.cpu0.iq.fu_full::FloatCvt                    0      0.00%     70.08% # attempts to use FU when none available
system.cpu0.iq.fu_full::FloatMult                   0      0.00%     70.08% # attempts to use FU when none available
system.cpu0.iq.fu_full::FloatMultAcc                0      0.00%     70.08% # attempts to use FU when none available
system.cpu0.iq.fu_full::FloatDiv                    0      0.00%     70.08% # attempts to use FU when none available
system.cpu0.iq.fu_full::FloatMisc                   0      0.00%     70.08% # attempts to use FU when none available
system.cpu0.iq.fu_full::FloatSqrt                   0      0.00%     70.08% # attempts to use FU when none available
system.cpu0.iq.fu_full::SimdAdd                     0      0.00%     70.08% # attempts to use FU when none available
system.cpu0.iq.fu_full::SimdAddAcc                  0      0.00%     70.08% # attempts to use FU when none available
system.cpu0.iq.fu_full::SimdAlu                     0      0.00%     70.08% # attempts to use FU when none available
system.cpu0.iq.fu_full::SimdCmp                     0      0.00%     70.08% # attempts to use FU when none available
system.cpu0.iq.fu_full::SimdCvt                     0      0.00%     70.08% # attempts to use FU when none available
system.cpu0.iq.fu_full::SimdMisc                    0      0.00%     70.08% # attempts to use FU when none available
system.cpu0.iq.fu_full::SimdMult                    0      0.00%     70.08% # attempts to use FU when none available
system.cpu0.iq.fu_full::SimdMultAcc                 0      0.00%     70.08% # attempts to use FU when none available
system.cpu0.iq.fu_full::SimdShift                   0      0.00%     70.08% # attempts to use FU when none available
system.cpu0.iq.fu_full::SimdShiftAcc                0      0.00%     70.08% # attempts to use FU when none available
system.cpu0.iq.fu_full::SimdSqrt                    0      0.00%     70.08% # attempts to use FU when none available
system.cpu0.iq.fu_full::SimdFloatAdd                0      0.00%     70.08% # attempts to use FU when none available
system.cpu0.iq.fu_full::SimdFloatAlu                0      0.00%     70.08% # attempts to use FU when none available
system.cpu0.iq.fu_full::SimdFloatCmp                0      0.00%     70.08% # attempts to use FU when none available
system.cpu0.iq.fu_full::SimdFloatCvt                0      0.00%     70.08% # attempts to use FU when none available
system.cpu0.iq.fu_full::SimdFloatDiv                0      0.00%     70.08% # attempts to use FU when none available
system.cpu0.iq.fu_full::SimdFloatMisc               0      0.00%     70.08% # attempts to use FU when none available
system.cpu0.iq.fu_full::SimdFloatMult               0      0.00%     70.08% # attempts to use FU when none available
system.cpu0.iq.fu_full::SimdFloatMultAcc            0      0.00%     70.08% # attempts to use FU when none available
system.cpu0.iq.fu_full::SimdFloatSqrt               0      0.00%     70.08% # attempts to use FU when none available
system.cpu0.iq.fu_full::MemRead                  4569     27.81%     97.89% # attempts to use FU when none available
system.cpu0.iq.fu_full::MemWrite                  219      1.33%     99.22% # attempts to use FU when none available
system.cpu0.iq.fu_full::FloatMemRead              109      0.66%     99.88% # attempts to use FU when none available
system.cpu0.iq.fu_full::FloatMemWrite              19      0.12%    100.00% # attempts to use FU when none available
system.cpu0.iq.fu_full::IprAccess                   0      0.00%    100.00% # attempts to use FU when none available
system.cpu0.iq.fu_full::InstPrefetch                0      0.00%    100.00% # attempts to use FU when none available
system.cpu0.iq.FU_type_0::No_OpClass            18375      0.41%      0.41% # Type of FU issued
system.cpu0.iq.FU_type_0::IntAlu              3666943     81.76%     82.17% # Type of FU issued
system.cpu0.iq.FU_type_0::IntMult                1328      0.03%     82.20% # Type of FU issued
system.cpu0.iq.FU_type_0::IntDiv                 8761      0.20%     82.39% # Type of FU issued
system.cpu0.iq.FU_type_0::FloatAdd              12523      0.28%     82.67% # Type of FU issued
system.cpu0.iq.FU_type_0::FloatCmp                  0      0.00%     82.67% # Type of FU issued
system.cpu0.iq.FU_type_0::FloatCvt                  0      0.00%     82.67% # Type of FU issued
system.cpu0.iq.FU_type_0::FloatMult                 0      0.00%     82.67% # Type of FU issued
system.cpu0.iq.FU_type_0::FloatMultAcc              0      0.00%     82.67% # Type of FU issued
system.cpu0.iq.FU_type_0::FloatDiv                  0      0.00%     82.67% # Type of FU issued
system.cpu0.iq.FU_type_0::FloatMisc                 0      0.00%     82.67% # Type of FU issued
system.cpu0.iq.FU_type_0::FloatSqrt                 0      0.00%     82.67% # Type of FU issued
system.cpu0.iq.FU_type_0::SimdAdd                   0      0.00%     82.67% # Type of FU issued
system.cpu0.iq.FU_type_0::SimdAddAcc                0      0.00%     82.67% # Type of FU issued
system.cpu0.iq.FU_type_0::SimdAlu                   0      0.00%     82.67% # Type of FU issued
system.cpu0.iq.FU_type_0::SimdCmp                   0      0.00%     82.67% # Type of FU issued
system.cpu0.iq.FU_type_0::SimdCvt                   0      0.00%     82.67% # Type of FU issued
system.cpu0.iq.FU_type_0::SimdMisc                  0      0.00%     82.67% # Type of FU issued
system.cpu0.iq.FU_type_0::SimdMult                  0      0.00%     82.67% # Type of FU issued
system.cpu0.iq.FU_type_0::SimdMultAcc               0      0.00%     82.67% # Type of FU issued
system.cpu0.iq.FU_type_0::SimdShift                 0      0.00%     82.67% # Type of FU issued
system.cpu0.iq.FU_type_0::SimdShiftAcc              0      0.00%     82.67% # Type of FU issued
system.cpu0.iq.FU_type_0::SimdSqrt                  0      0.00%     82.67% # Type of FU issued
system.cpu0.iq.FU_type_0::SimdFloatAdd              0      0.00%     82.67% # Type of FU issued
system.cpu0.iq.FU_type_0::SimdFloatAlu              0      0.00%     82.67% # Type of FU issued
system.cpu0.iq.FU_type_0::SimdFloatCmp              0      0.00%     82.67% # Type of FU issued
system.cpu0.iq.FU_type_0::SimdFloatCvt              0      0.00%     82.67% # Type of FU issued
system.cpu0.iq.FU_type_0::SimdFloatDiv              0      0.00%     82.67% # Type of FU issued
system.cpu0.iq.FU_type_0::SimdFloatMisc             0      0.00%     82.67% # Type of FU issued
system.cpu0.iq.FU_type_0::SimdFloatMult             0      0.00%     82.67% # Type of FU issued
system.cpu0.iq.FU_type_0::SimdFloatMultAcc            0      0.00%     82.67% # Type of FU issued
system.cpu0.iq.FU_type_0::SimdFloatSqrt             0      0.00%     82.67% # Type of FU issued
system.cpu0.iq.FU_type_0::MemRead              718611     16.02%     98.69% # Type of FU issued
system.cpu0.iq.FU_type_0::MemWrite              56279      1.25%     99.95% # Type of FU issued
system.cpu0.iq.FU_type_0::FloatMemRead           2342      0.05%    100.00% # Type of FU issued
system.cpu0.iq.FU_type_0::FloatMemWrite            72      0.00%    100.00% # Type of FU issued
system.cpu0.iq.FU_type_0::IprAccess                 0      0.00%    100.00% # Type of FU issued
system.cpu0.iq.FU_type_0::InstPrefetch              0      0.00%    100.00% # Type of FU issued
system.cpu0.iq.FU_type_0::total               4485234                       # Type of FU issued
system.cpu0.iq.rate                          0.146890                       # Inst issue rate
system.cpu0.iq.fu_busy_cnt                      16428                       # FU busy when requested
system.cpu0.iq.fu_busy_rate                  0.003663                       # FU busy rate (busy events/executed inst)
system.cpu0.iq.int_inst_queue_reads          39430541                       # Number of integer instruction queue reads
system.cpu0.iq.int_inst_queue_writes          9851799                       # Number of integer instruction queue writes
system.cpu0.iq.int_inst_queue_wakeup_accesses      4298929                       # Number of integer instruction queue wakeup accesses
system.cpu0.iq.fp_inst_queue_reads              31222                       # Number of floating instruction queue reads
system.cpu0.iq.fp_inst_queue_writes             28410                       # Number of floating instruction queue writes
system.cpu0.iq.fp_inst_queue_wakeup_accesses        13582                       # Number of floating instruction queue wakeup accesses
system.cpu0.iq.vec_inst_queue_reads                 0                       # Number of vector instruction queue reads
system.cpu0.iq.vec_inst_queue_writes                0                       # Number of vector instruction queue writes
system.cpu0.iq.vec_inst_queue_wakeup_accesses            0                       # Number of vector instruction queue wakeup accesses
system.cpu0.iq.int_alu_accesses               4467185                       # Number of integer alu accesses
system.cpu0.iq.fp_alu_accesses                  16102                       # Number of floating point alu accesses
system.cpu0.iq.vec_alu_accesses                     0                       # Number of vector alu accesses
system.cpu0.iew.lsq.thread0.forwLoads            4212                       # Number of loads that had data forwarded from stores
system.cpu0.iew.lsq.thread0.invAddrLoads            0                       # Number of loads ignored due to an invalid address
system.cpu0.iew.lsq.thread0.squashedLoads       706500                       # Number of loads squashed
system.cpu0.iew.lsq.thread0.ignoredResponses          138                       # Number of memory responses ignored because the instruction is squashed
system.cpu0.iew.lsq.thread0.memOrderViolation            3                       # Number of memory ordering violations
system.cpu0.iew.lsq.thread0.squashedStores        52622                       # Number of stores squashed
system.cpu0.iew.lsq.thread0.invAddrSwpfs            0                       # Number of software prefetches ignored due to an invalid address
system.cpu0.iew.lsq.thread0.blockedLoads            0                       # Number of blocked loads due to partial load-store forwarding
system.cpu0.iew.lsq.thread0.rescheduledLoads           34                       # Number of loads that were rescheduled
system.cpu0.iew.lsq.thread0.cacheBlocked         1027                       # Number of times an access to memory failed due to the cache being blocked
system.cpu0.iew.iewIdleCycles                       0                       # Number of cycles IEW is idle
system.cpu0.iew.iewSquashCycles                 64745                       # Number of cycles IEW is squashing
system.cpu0.iew.iewBlockCycles               25081306                       # Number of cycles IEW is blocking
system.cpu0.iew.iewUnblockCycles               305102                       # Number of cycles IEW is unblocking
system.cpu0.iew.iewDispatchedInsts            6086240                       # Number of instructions dispatched to IQ
system.cpu0.iew.iewDispSquashedInsts             6090                       # Number of squashed instructions skipped by dispatch
system.cpu0.iew.iewDispLoadInsts              1136377                       # Number of dispatched load instructions
system.cpu0.iew.iewDispStoreInsts               77565                       # Number of dispatched store instructions
system.cpu0.iew.iewDispNonSpecInsts              1843                       # Number of dispatched non-speculative instructions
system.cpu0.iew.iewIQFullEvents                 15027                       # Number of times the IQ has become full, causing a stall
system.cpu0.iew.iewLSQFullEvents               112255                       # Number of times the LSQ has become full, causing a stall
system.cpu0.iew.memOrderViolationEvents             3                       # Number of memory order violations
system.cpu0.iew.predictedTakenIncorrect         33878                       # Number of branches that were predicted taken incorrectly
system.cpu0.iew.predictedNotTakenIncorrect        37919                       # Number of branches that were predicted not taken incorrectly
system.cpu0.iew.branchMispredicts               71797                       # Number of branch mispredicts detected at execute
system.cpu0.iew.iewExecutedInsts              4402661                       # Number of executed instructions
system.cpu0.iew.iewExecLoadInsts               689830                       # Number of load instructions executed
system.cpu0.iew.iewExecSquashedInsts            82573                       # Number of squashed instructions skipped in execute
system.cpu0.iew.exec_swp                            0                       # number of swp insts executed
system.cpu0.iew.exec_nop                            0                       # number of nop insts executed
system.cpu0.iew.exec_refs                      741839                       # number of memory reference insts executed
system.cpu0.iew.exec_branches                  538858                       # Number of branches executed
system.cpu0.iew.exec_stores                     52009                       # Number of stores executed
system.cpu0.iew.exec_rate                    0.144186                       # Inst execution rate
system.cpu0.iew.wb_sent                       4329085                       # cumulative count of insts sent to commit
system.cpu0.iew.wb_count                      4312511                       # cumulative count of insts written-back
system.cpu0.iew.wb_producers                  3104354                       # num instructions producing a value
system.cpu0.iew.wb_consumers                  5019710                       # num instructions consuming a value
system.cpu0.iew.wb_rate                      0.141233                       # insts written-back per cycle
system.cpu0.iew.wb_fanout                    0.618433                       # average fanout of values written-back
system.cpu0.commit.commitSquashedInsts        3795021                       # The number of squashed insts skipped by commit
system.cpu0.commit.branchMispredicts            64744                       # The number of times a branch was mispredicted
system.cpu0.commit.committed_per_cycle::samples     29917458                       # Number of insts commited each cycle
system.cpu0.commit.committed_per_cycle::mean     0.076619                       # Number of insts commited each cycle
system.cpu0.commit.committed_per_cycle::stdev     0.503330                       # Number of insts commited each cycle
system.cpu0.commit.committed_per_cycle::underflows            0      0.00%      0.00% # Number of insts commited each cycle
system.cpu0.commit.committed_per_cycle::0     28902985     96.61%     96.61% # Number of insts commited each cycle
system.cpu0.commit.committed_per_cycle::1       469130      1.57%     98.18% # Number of insts commited each cycle
system.cpu0.commit.committed_per_cycle::2       116957      0.39%     98.57% # Number of insts commited each cycle
system.cpu0.commit.committed_per_cycle::3       311418      1.04%     99.61% # Number of insts commited each cycle
system.cpu0.commit.committed_per_cycle::4        48964      0.16%     99.77% # Number of insts commited each cycle
system.cpu0.commit.committed_per_cycle::5        24045      0.08%     99.85% # Number of insts commited each cycle
system.cpu0.commit.committed_per_cycle::6         4653      0.02%     99.87% # Number of insts commited each cycle
system.cpu0.commit.committed_per_cycle::7         3493      0.01%     99.88% # Number of insts commited each cycle
system.cpu0.commit.committed_per_cycle::8        35813      0.12%    100.00% # Number of insts commited each cycle
system.cpu0.commit.committed_per_cycle::overflows            0      0.00%    100.00% # Number of insts commited each cycle
system.cpu0.commit.committed_per_cycle::min_value            0                       # Number of insts commited each cycle
system.cpu0.commit.committed_per_cycle::max_value            8                       # Number of insts commited each cycle
system.cpu0.commit.committed_per_cycle::total     29917458                       # Number of insts commited each cycle
system.cpu0.commit.committedInsts             1147894                       # Number of instructions committed
system.cpu0.commit.committedOps               2292252                       # Number of ops (including micro ops) committed
system.cpu0.commit.swp_count                        0                       # Number of s/w prefetches committed
system.cpu0.commit.refs                        454816                       # Number of memory references committed
system.cpu0.commit.loads                       429873                       # Number of loads committed
system.cpu0.commit.membars                          0                       # Number of memory barriers committed
system.cpu0.commit.branches                    411768                       # Number of branches committed
system.cpu0.commit.vec_insts                        0                       # Number of committed Vector instructions.
system.cpu0.commit.fp_insts                      9946                       # Number of committed floating point instructions.
system.cpu0.commit.int_insts                  2282161                       # Number of committed integer instructions.
system.cpu0.commit.function_calls                4400                       # Number of function calls committed.
system.cpu0.commit.op_class_0::No_OpClass         3021      0.13%      0.13% # Class of committed instruction
system.cpu0.commit.op_class_0::IntAlu         1818399     79.33%     79.46% # Class of committed instruction
system.cpu0.commit.op_class_0::IntMult            176      0.01%     79.47% # Class of committed instruction
system.cpu0.commit.op_class_0::IntDiv            7332      0.32%     79.79% # Class of committed instruction
system.cpu0.commit.op_class_0::FloatAdd          8508      0.37%     80.16% # Class of committed instruction
system.cpu0.commit.op_class_0::FloatCmp             0      0.00%     80.16% # Class of committed instruction
system.cpu0.commit.op_class_0::FloatCvt             0      0.00%     80.16% # Class of committed instruction
system.cpu0.commit.op_class_0::FloatMult            0      0.00%     80.16% # Class of committed instruction
system.cpu0.commit.op_class_0::FloatMultAcc            0      0.00%     80.16% # Class of committed instruction
system.cpu0.commit.op_class_0::FloatDiv             0      0.00%     80.16% # Class of committed instruction
system.cpu0.commit.op_class_0::FloatMisc            0      0.00%     80.16% # Class of committed instruction
system.cpu0.commit.op_class_0::FloatSqrt            0      0.00%     80.16% # Class of committed instruction
system.cpu0.commit.op_class_0::SimdAdd              0      0.00%     80.16% # Class of committed instruction
system.cpu0.commit.op_class_0::SimdAddAcc            0      0.00%     80.16% # Class of committed instruction
system.cpu0.commit.op_class_0::SimdAlu              0      0.00%     80.16% # Class of committed instruction
system.cpu0.commit.op_class_0::SimdCmp              0      0.00%     80.16% # Class of committed instruction
system.cpu0.commit.op_class_0::SimdCvt              0      0.00%     80.16% # Class of committed instruction
system.cpu0.commit.op_class_0::SimdMisc             0      0.00%     80.16% # Class of committed instruction
system.cpu0.commit.op_class_0::SimdMult             0      0.00%     80.16% # Class of committed instruction
system.cpu0.commit.op_class_0::SimdMultAcc            0      0.00%     80.16% # Class of committed instruction
system.cpu0.commit.op_class_0::SimdShift            0      0.00%     80.16% # Class of committed instruction
system.cpu0.commit.op_class_0::SimdShiftAcc            0      0.00%     80.16% # Class of committed instruction
system.cpu0.commit.op_class_0::SimdSqrt             0      0.00%     80.16% # Class of committed instruction
system.cpu0.commit.op_class_0::SimdFloatAdd            0      0.00%     80.16% # Class of committed instruction
system.cpu0.commit.op_class_0::SimdFloatAlu            0      0.00%     80.16% # Class of committed instruction
system.cpu0.commit.op_class_0::SimdFloatCmp            0      0.00%     80.16% # Class of committed instruction
system.cpu0.commit.op_class_0::SimdFloatCvt            0      0.00%     80.16% # Class of committed instruction
system.cpu0.commit.op_class_0::SimdFloatDiv            0      0.00%     80.16% # Class of committed instruction
system.cpu0.commit.op_class_0::SimdFloatMisc            0      0.00%     80.16% # Class of committed instruction
system.cpu0.commit.op_class_0::SimdFloatMult            0      0.00%     80.16% # Class of committed instruction
system.cpu0.commit.op_class_0::SimdFloatMultAcc            0      0.00%     80.16% # Class of committed instruction
system.cpu0.commit.op_class_0::SimdFloatSqrt            0      0.00%     80.16% # Class of committed instruction
system.cpu0.commit.op_class_0::MemRead         428435     18.69%     98.85% # Class of committed instruction
system.cpu0.commit.op_class_0::MemWrite         24943      1.09%     99.94% # Class of committed instruction
system.cpu0.commit.op_class_0::FloatMemRead         1438      0.06%    100.00% # Class of committed instruction
system.cpu0.commit.op_class_0::FloatMemWrite            0      0.00%    100.00% # Class of committed instruction
system.cpu0.commit.op_class_0::IprAccess            0      0.00%    100.00% # Class of committed instruction
system.cpu0.commit.op_class_0::InstPrefetch            0      0.00%    100.00% # Class of committed instruction
system.cpu0.commit.op_class_0::total          2292252                       # Class of committed instruction
system.cpu0.commit.bw_lim_events                35813                       # number cycles where commit BW limit reached
system.cpu0.rob.rob_reads                    35968918                       # The number of ROB reads
system.cpu0.rob.rob_writes                   12727042                       # The number of ROB writes
system.cpu0.timesIdled                            493                       # Number of times that the entire CPU went into an idle state and unscheduled itself
system.cpu0.idleCycles                          66055                       # Total number of cycles that the CPU has spent unscheduled due to idling
system.cpu0.committedInsts                    1147894                       # Number of Instructions Simulated
system.cpu0.committedOps                      2292252                       # Number of Ops (including micro ops) Simulated
system.cpu0.cpi                             26.600616                       # CPI: Cycles Per Instruction
system.cpu0.cpi_total                       26.600616                       # CPI: Total CPI of All Threads
system.cpu0.ipc                              0.037593                       # IPC: Instructions Per Cycle
system.cpu0.ipc_total                        0.037593                       # IPC: Total IPC of All Threads
system.cpu0.int_regfile_reads                 4606364                       # number of integer regfile reads
system.cpu0.int_regfile_writes                3726469                       # number of integer regfile writes
system.cpu0.fp_regfile_reads                    24194                       # number of floating regfile reads
system.cpu0.fp_regfile_writes                   12059                       # number of floating regfile writes
system.cpu0.cc_regfile_reads                  2809136                       # number of cc regfile reads
system.cpu0.cc_regfile_writes                 1239448                       # number of cc regfile writes
system.cpu0.misc_regfile_reads                2288266                       # number of misc regfile reads
system.cpu0.dcache.tags.pwrStateResidencyTicks::UNDEFINED  15267344125                       # Cumulative time (in ticks) in various power states
system.cpu0.dcache.tags.replacements           227271                       # number of replacements
system.cpu0.dcache.tags.tagsinuse                1024                       # Cycle average of tags in use
system.cpu0.dcache.tags.total_refs             300144                       # Total number of references to valid blocks.
system.cpu0.dcache.tags.sampled_refs           227271                       # Sample count of references to valid blocks.
system.cpu0.dcache.tags.avg_refs             1.320644                       # Average number of references to valid blocks.
system.cpu0.dcache.tags.warmup_cycle                0                       # Cycle when the warmup percentage was hit.
system.cpu0.dcache.tags.occ_blocks::cpu0.data         1024                       # Average occupied blocks per requestor
system.cpu0.dcache.tags.occ_percent::cpu0.data            1                       # Average percentage of cache occupancy
system.cpu0.dcache.tags.occ_percent::total            1                       # Average percentage of cache occupancy
system.cpu0.dcache.tags.occ_task_id_blocks::1024         1024                       # Occupied blocks per task id
system.cpu0.dcache.tags.age_task_id_blocks_1024::0          127                       # Occupied blocks per task id
system.cpu0.dcache.tags.age_task_id_blocks_1024::1          824                       # Occupied blocks per task id
system.cpu0.dcache.tags.age_task_id_blocks_1024::2           73                       # Occupied blocks per task id
system.cpu0.dcache.tags.occ_task_id_percent::1024            1                       # Percentage of cache occupancy per task id
system.cpu0.dcache.tags.tag_accesses          3055091                       # Number of tag accesses
system.cpu0.dcache.tags.data_accesses         3055091                       # Number of data accesses
system.cpu0.dcache.pwrStateResidencyTicks::UNDEFINED  15267344125                       # Cumulative time (in ticks) in various power states
system.cpu0.dcache.ReadReq_hits::cpu0.data       279182                       # number of ReadReq hits
system.cpu0.dcache.ReadReq_hits::total         279182                       # number of ReadReq hits
system.cpu0.dcache.WriteReq_hits::cpu0.data        24052                       # number of WriteReq hits
system.cpu0.dcache.WriteReq_hits::total         24052                       # number of WriteReq hits
system.cpu0.dcache.demand_hits::cpu0.data       303234                       # number of demand (read+write) hits
system.cpu0.dcache.demand_hits::total          303234                       # number of demand (read+write) hits
system.cpu0.dcache.overall_hits::cpu0.data       303234                       # number of overall hits
system.cpu0.dcache.overall_hits::total         303234                       # number of overall hits
system.cpu0.dcache.ReadReq_misses::cpu0.data       402830                       # number of ReadReq misses
system.cpu0.dcache.ReadReq_misses::total       402830                       # number of ReadReq misses
system.cpu0.dcache.WriteReq_misses::cpu0.data          891                       # number of WriteReq misses
system.cpu0.dcache.WriteReq_misses::total          891                       # number of WriteReq misses
system.cpu0.dcache.demand_misses::cpu0.data       403721                       # number of demand (read+write) misses
system.cpu0.dcache.demand_misses::total        403721                       # number of demand (read+write) misses
system.cpu0.dcache.overall_misses::cpu0.data       403721                       # number of overall misses
system.cpu0.dcache.overall_misses::total       403721                       # number of overall misses
system.cpu0.dcache.ReadReq_miss_latency::cpu0.data  34275120500                       # number of ReadReq miss cycles
system.cpu0.dcache.ReadReq_miss_latency::total  34275120500                       # number of ReadReq miss cycles
system.cpu0.dcache.WriteReq_miss_latency::cpu0.data     33162000                       # number of WriteReq miss cycles
system.cpu0.dcache.WriteReq_miss_latency::total     33162000                       # number of WriteReq miss cycles
system.cpu0.dcache.demand_miss_latency::cpu0.data  34308282500                       # number of demand (read+write) miss cycles
system.cpu0.dcache.demand_miss_latency::total  34308282500                       # number of demand (read+write) miss cycles
system.cpu0.dcache.overall_miss_latency::cpu0.data  34308282500                       # number of overall miss cycles
system.cpu0.dcache.overall_miss_latency::total  34308282500                       # number of overall miss cycles
system.cpu0.dcache.ReadReq_accesses::cpu0.data       682012                       # number of ReadReq accesses(hits+misses)
system.cpu0.dcache.ReadReq_accesses::total       682012                       # number of ReadReq accesses(hits+misses)
system.cpu0.dcache.WriteReq_accesses::cpu0.data        24943                       # number of WriteReq accesses(hits+misses)
system.cpu0.dcache.WriteReq_accesses::total        24943                       # number of WriteReq accesses(hits+misses)
system.cpu0.dcache.demand_accesses::cpu0.data       706955                       # number of demand (read+write) accesses
system.cpu0.dcache.demand_accesses::total       706955                       # number of demand (read+write) accesses
system.cpu0.dcache.overall_accesses::cpu0.data       706955                       # number of overall (read+write) accesses
system.cpu0.dcache.overall_accesses::total       706955                       # number of overall (read+write) accesses
system.cpu0.dcache.ReadReq_miss_rate::cpu0.data     0.590649                       # miss rate for ReadReq accesses
system.cpu0.dcache.ReadReq_miss_rate::total     0.590649                       # miss rate for ReadReq accesses
system.cpu0.dcache.WriteReq_miss_rate::cpu0.data     0.035721                       # miss rate for WriteReq accesses
system.cpu0.dcache.WriteReq_miss_rate::total     0.035721                       # miss rate for WriteReq accesses
system.cpu0.dcache.demand_miss_rate::cpu0.data     0.571070                       # miss rate for demand accesses
system.cpu0.dcache.demand_miss_rate::total     0.571070                       # miss rate for demand accesses
system.cpu0.dcache.overall_miss_rate::cpu0.data     0.571070                       # miss rate for overall accesses
system.cpu0.dcache.overall_miss_rate::total     0.571070                       # miss rate for overall accesses
system.cpu0.dcache.ReadReq_avg_miss_latency::cpu0.data 85085.819080                       # average ReadReq miss latency
system.cpu0.dcache.ReadReq_avg_miss_latency::total 85085.819080                       # average ReadReq miss latency
system.cpu0.dcache.WriteReq_avg_miss_latency::cpu0.data 37218.855219                       # average WriteReq miss latency
system.cpu0.dcache.WriteReq_avg_miss_latency::total 37218.855219                       # average WriteReq miss latency
system.cpu0.dcache.demand_avg_miss_latency::cpu0.data 84980.178143                       # average overall miss latency
system.cpu0.dcache.demand_avg_miss_latency::total 84980.178143                       # average overall miss latency
system.cpu0.dcache.overall_avg_miss_latency::cpu0.data 84980.178143                       # average overall miss latency
[...]
system.l2.WritebackDirty_hits::total             2113                       # number of WritebackDirty hits
system.l2.ReadExReq_hits::cpu0.data               644                       # number of ReadExReq hits
system.l2.ReadExReq_hits::total                   644                       # number of ReadExReq hits
system.l2.ReadSharedReq_hits::cpu0.data         31963                       # number of ReadSharedReq hits
system.l2.ReadSharedReq_hits::total             31963                       # number of ReadSharedReq hits
system.l2.demand_hits::cpu0.data                32607                       # number of demand (read+write) hits
system.l2.demand_hits::total                    32607                       # number of demand (read+write) hits
system.l2.overall_hits::cpu0.data               32607                       # number of overall hits
system.l2.overall_hits::total                   32607                       # number of overall hits
system.l2.ReadExReq_misses::cpu0.data             239                       # number of ReadExReq misses
system.l2.ReadExReq_misses::total                 239                       # number of ReadExReq misses
system.l2.ReadSharedReq_misses::cpu0.data       194425                       # number of ReadSharedReq misses
system.l2.ReadSharedReq_misses::total          194425                       # number of ReadSharedReq misses
system.l2.demand_misses::cpu0.data             194664                       # number of demand (read+write) misses
system.l2.demand_misses::total                 194664                       # number of demand (read+write) misses
system.l2.overall_misses::cpu0.data            194664                       # number of overall misses
system.l2.overall_misses::total                194664                       # number of overall misses
system.l2.ReadExReq_miss_latency::cpu0.data     23371000                       # number of ReadExReq miss cycles
system.l2.ReadExReq_miss_latency::total      23371000                       # number of ReadExReq miss cycles
system.l2.ReadSharedReq_miss_latency::cpu0.data  18475206500                       # number of ReadSharedReq miss cycles
system.l2.ReadSharedReq_miss_latency::total  18475206500                       # number of ReadSharedReq miss cycles
system.l2.demand_miss_latency::cpu0.data  18498577500                       # number of demand (read+write) miss cycles
system.l2.demand_miss_latency::total      18498577500                       # number of demand (read+write) miss cycles
system.l2.overall_miss_latency::cpu0.data  18498577500                       # number of overall miss cycles
system.l2.overall_miss_latency::total     18498577500                       # number of overall miss cycles
system.l2.WritebackDirty_accesses::writebacks         2113                       # number of WritebackDirty accesses(hits+misses)
system.l2.WritebackDirty_accesses::total         2113                       # number of WritebackDirty accesses(hits+misses)
system.l2.ReadExReq_accesses::cpu0.data           883                       # number of ReadExReq accesses(hits+misses)
system.l2.ReadExReq_accesses::total               883                       # number of ReadExReq accesses(hits+misses)
system.l2.ReadSharedReq_accesses::cpu0.data       226388                       # number of ReadSharedReq accesses(hits+misses)
system.l2.ReadSharedReq_accesses::total        226388                       # number of ReadSharedReq accesses(hits+misses)
system.l2.demand_accesses::cpu0.data           227271                       # number of demand (read+write) accesses
system.l2.demand_accesses::total               227271                       # number of demand (read+write) accesses
system.l2.overall_accesses::cpu0.data          227271                       # number of overall (read+write) accesses
system.l2.overall_accesses::total              227271                       # number of overall (read+write) accesses
system.l2.ReadExReq_miss_rate::cpu0.data     0.270668                       # miss rate for ReadExReq accesses
system.l2.ReadExReq_miss_rate::total         0.270668                       # miss rate for ReadExReq accesses
system.l2.ReadSharedReq_miss_rate::cpu0.data     0.858813                       # miss rate for ReadSharedReq accesses
system.l2.ReadSharedReq_miss_rate::total     0.858813                       # miss rate for ReadSharedReq accesses
system.l2.demand_miss_rate::cpu0.data        0.856528                       # miss rate for demand accesses
system.l2.demand_miss_rate::total            0.856528                       # miss rate for demand accesses
system.l2.overall_miss_rate::cpu0.data       0.856528                       # miss rate for overall accesses
system.l2.overall_miss_rate::total           0.856528                       # miss rate for overall accesses
system.l2.ReadExReq_avg_miss_latency::cpu0.data 97786.610879                       # average ReadExReq miss latency
system.l2.ReadExReq_avg_miss_latency::total 97786.610879                       # average ReadExReq miss latency
system.l2.ReadSharedReq_avg_miss_latency::cpu0.data 95024.850199                       # average ReadSharedReq miss latency
system.l2.ReadSharedReq_avg_miss_latency::total 95024.850199                       # average ReadSharedReq miss latency
system.l2.demand_avg_miss_latency::cpu0.data 95028.240969                       # average overall miss latency
system.l2.demand_avg_miss_latency::total 95028.240969                       # average overall miss latency
system.l2.overall_avg_miss_latency::cpu0.data 95028.240969                       # average overall miss latency
system.l2.overall_avg_miss_latency::total 95028.240969                       # average overall miss latency
system.l2.blocked_cycles::no_mshrs                  0                       # number of cycles access was blocked
system.l2.blocked_cycles::no_targets                0                       # number of cycles access was blocked
system.l2.blocked::no_mshrs                         0                       # number of cycles access was blocked
system.l2.blocked::no_targets                       0                       # number of cycles access was blocked
system.l2.avg_blocked_cycles::no_mshrs            nan                       # average number of cycles each access was blocked
system.l2.avg_blocked_cycles::no_targets          nan                       # average number of cycles each access was blocked
system.l2.writebacks::writebacks                  383                       # number of writebacks
system.l2.writebacks::total                       383                       # number of writebacks
system.l2.CleanEvict_mshr_misses::writebacks            1                       # number of CleanEvict MSHR misses
system.l2.CleanEvict_mshr_misses::total             1                       # number of CleanEvict MSHR misses
system.l2.ReadExReq_mshr_misses::cpu0.data          239                       # number of ReadExReq MSHR misses
system.l2.ReadExReq_mshr_misses::total            239                       # number of ReadExReq MSHR misses
system.l2.ReadSharedReq_mshr_misses::cpu0.data       194425                       # number of ReadSharedReq MSHR misses
system.l2.ReadSharedReq_mshr_misses::total       194425                       # number of ReadSharedReq MSHR misses
system.l2.demand_mshr_misses::cpu0.data        194664                       # number of demand (read+write) MSHR misses
system.l2.demand_mshr_misses::total            194664                       # number of demand (read+write) MSHR misses
system.l2.overall_mshr_misses::cpu0.data       194664                       # number of overall MSHR misses
system.l2.overall_mshr_misses::total           194664                       # number of overall MSHR misses
system.l2.ReadExReq_mshr_miss_latency::cpu0.data     20981000                       # number of ReadExReq MSHR miss cycles
system.l2.ReadExReq_mshr_miss_latency::total     20981000                       # number of ReadExReq MSHR miss cycles
system.l2.ReadSharedReq_mshr_miss_latency::cpu0.data  16530956500                       # number of ReadSharedReq MSHR miss cycles
system.l2.ReadSharedReq_mshr_miss_latency::total  16530956500                       # number of ReadSharedReq MSHR miss cycles
system.l2.demand_mshr_miss_latency::cpu0.data  16551937500                       # number of demand (read+write) MSHR miss cycles
system.l2.demand_mshr_miss_latency::total  16551937500                       # number of demand (read+write) MSHR miss cycles
system.l2.overall_mshr_miss_latency::cpu0.data  16551937500                       # number of overall MSHR miss cycles
system.l2.overall_mshr_miss_latency::total  16551937500                       # number of overall MSHR miss cycles
system.l2.CleanEvict_mshr_miss_rate::writebacks          inf                       # mshr miss rate for CleanEvict accesses
system.l2.CleanEvict_mshr_miss_rate::total          inf                       # mshr miss rate for CleanEvict accesses
system.l2.ReadExReq_mshr_miss_rate::cpu0.data     0.270668                       # mshr miss rate for ReadExReq accesses
system.l2.ReadExReq_mshr_miss_rate::total     0.270668                       # mshr miss rate for ReadExReq accesses
system.l2.ReadSharedReq_mshr_miss_rate::cpu0.data     0.858813                       # mshr miss rate for ReadSharedReq accesses
system.l2.ReadSharedReq_mshr_miss_rate::total     0.858813                       # mshr miss rate for ReadSharedReq accesses
system.l2.demand_mshr_miss_rate::cpu0.data     0.856528                       # mshr miss rate for demand accesses
system.l2.demand_mshr_miss_rate::total       0.856528                       # mshr miss rate for demand accesses
system.l2.overall_mshr_miss_rate::cpu0.data     0.856528                       # mshr miss rate for overall accesses
system.l2.overall_mshr_miss_rate::total      0.856528                       # mshr miss rate for overall accesses
system.l2.ReadExReq_avg_mshr_miss_latency::cpu0.data 87786.610879                       # average ReadExReq mshr miss latency
system.l2.ReadExReq_avg_mshr_miss_latency::total 87786.610879                       # average ReadExReq mshr miss latency
system.l2.ReadSharedReq_avg_mshr_miss_latency::cpu0.data 85024.850199                       # average ReadSharedReq mshr miss latency
system.l2.ReadSharedReq_avg_mshr_miss_latency::total 85024.850199                       # average ReadSharedReq mshr miss latency
system.l2.demand_avg_mshr_miss_latency::cpu0.data 85028.240969                       # average overall mshr miss latency
system.l2.demand_avg_mshr_miss_latency::total 85028.240969                       # average overall mshr miss latency
system.l2.overall_avg_mshr_miss_latency::cpu0.data 85028.240969                       # average overall mshr miss latency
system.l2.overall_avg_mshr_miss_latency::total 85028.240969                       # average overall mshr miss latency
system.membus.snoop_filter.tot_requests        389320                       # Total number of requests made to the snoop filter.
system.membus.snoop_filter.hit_single_requests       194664                       # Number of requests hitting in the snoop filter with a single holder of the requested data.
system.membus.snoop_filter.hit_multi_requests            0                       # Number of requests hitting in the snoop filter with multiple (>1) holders of the requested data.
system.membus.snoop_filter.tot_snoops               0                       # Total number of snoops made to the snoop filter.
system.membus.snoop_filter.hit_single_snoops            0                       # Number of snoops hitting in the snoop filter with a single holder of the requested data.
system.membus.snoop_filter.hit_multi_snoops            0                       # Number of snoops hitting in the snoop filter with multiple (>1) holders of the requested data.
system.membus.pwrStateResidencyTicks::UNDEFINED  15267344125                       # Cumulative time (in ticks) in various power states
system.membus.trans_dist::ReadResp             194425                       # Transaction distribution
system.membus.trans_dist::WritebackDirty          383                       # Transaction distribution
system.membus.trans_dist::CleanEvict           194274                       # Transaction distribution
system.membus.trans_dist::ReadExReq               239                       # Transaction distribution
system.membus.trans_dist::ReadExResp              239                       # Transaction distribution
system.membus.trans_dist::ReadSharedReq        194424                       # Transaction distribution
system.membus.pkt_count_system.l2.mem_side::system.mem_ctrls.port       583984                       # Packet count per connected master and slave (bytes)
system.membus.pkt_count_system.l2.mem_side::total       583984                       # Packet count per connected master and slave (bytes)
system.membus.pkt_count::total                 583984                       # Packet count per connected master and slave (bytes)
system.membus.pkt_size_system.l2.mem_side::system.mem_ctrls.port     12483008                       # Cumulative packet size per connected master and slave (bytes)
system.membus.pkt_size_system.l2.mem_side::total     12483008                       # Cumulative packet size per connected master and slave (bytes)
system.membus.pkt_size::total                12483008                       # Cumulative packet size per connected master and slave (bytes)
system.membus.snoops                                0                       # Total snoops (count)
system.membus.snoopTraffic                          0                       # Total snoop traffic (bytes)
system.membus.snoop_fanout::samples            194663                       # Request fanout histogram
system.membus.snoop_fanout::mean                    0                       # Request fanout histogram
system.membus.snoop_fanout::stdev                   0                       # Request fanout histogram
system.membus.snoop_fanout::underflows              0      0.00%      0.00% # Request fanout histogram
system.membus.snoop_fanout::0                  194663    100.00%    100.00% # Request fanout histogram
system.membus.snoop_fanout::1                       0      0.00%    100.00% # Request fanout histogram
system.membus.snoop_fanout::overflows               0      0.00%    100.00% # Request fanout histogram
system.membus.snoop_fanout::min_value               0                       # Request fanout histogram
system.membus.snoop_fanout::max_value               0                       # Request fanout histogram
system.membus.snoop_fanout::total              194663                       # Request fanout histogram
system.membus.reqLayer4.occupancy           460728500                       # Layer occupancy (ticks)
system.membus.reqLayer4.utilization               3.0                       # Layer utilization (%)
system.membus.respLayer1.occupancy         1051816000                       # Layer occupancy (ticks)
system.membus.respLayer1.utilization              6.9                       # Layer utilization (%)
system.tol2bus.snoop_filter.tot_requests       454542                       # Total number of requests made to the snoop filter.
system.tol2bus.snoop_filter.hit_single_requests       227274                       # Number of requests hitting in the snoop filter with a single holder of the requested data.
system.tol2bus.snoop_filter.hit_multi_requests          546                       # Number of requests hitting in the snoop filter with multiple (>1) holders of the requested data.
system.tol2bus.snoop_filter.tot_snoops             21                       # Total number of snoops made to the snoop filter.
system.tol2bus.snoop_filter.hit_single_snoops           20                       # Number of snoops hitting in the snoop filter with a single holder of the requested data.
system.tol2bus.snoop_filter.hit_multi_snoops            1                       # Number of snoops hitting in the snoop filter with multiple (>1) holders of the requested data.
system.tol2bus.pwrStateResidencyTicks::UNDEFINED  15267344125                       # Cumulative time (in ticks) in various power states
system.tol2bus.trans_dist::ReadResp            226388                       # Transaction distribution
system.tol2bus.trans_dist::WritebackDirty         2496                       # Transaction distribution
system.tol2bus.trans_dist::CleanEvict          419452                       # Transaction distribution
system.tol2bus.trans_dist::ReadExReq              883                       # Transaction distribution
system.tol2bus.trans_dist::ReadExResp             883                       # Transaction distribution
system.tol2bus.trans_dist::ReadSharedReq       226388                       # Transaction distribution
system.tol2bus.pkt_count_system.cpu0.dcache.mem_side::system.l2.cpu_side       681813                       # Packet count per connected master and slave (bytes)
system.tol2bus.pkt_count::total                681813                       # Packet count per connected master and slave (bytes)
system.tol2bus.pkt_size_system.cpu0.dcache.mem_side::system.l2.cpu_side     14680576                       # Cumulative packet size per connected master and slave (bytes)
system.tol2bus.pkt_size::total               14680576                       # Cumulative packet size per connected master and slave (bytes)
system.tol2bus.snoops                          194677                       # Total snoops (count)
system.tol2bus.snoopTraffic                     24512                       # Total snoop traffic (bytes)
system.tol2bus.snoop_fanout::samples           421948                       # Request fanout histogram
system.tol2bus.snoop_fanout::mean            0.001353                       # Request fanout histogram
system.tol2bus.snoop_fanout::stdev           0.036826                       # Request fanout histogram
system.tol2bus.snoop_fanout::underflows             0      0.00%      0.00% # Request fanout histogram
system.tol2bus.snoop_fanout::0                 421378     99.86%     99.86% # Request fanout histogram
system.tol2bus.snoop_fanout::1                    569      0.13%    100.00% # Request fanout histogram
system.tol2bus.snoop_fanout::2                      1      0.00%    100.00% # Request fanout histogram
system.tol2bus.snoop_fanout::3                      0      0.00%    100.00% # Request fanout histogram
system.tol2bus.snoop_fanout::4                      0      0.00%    100.00% # Request fanout histogram
system.tol2bus.snoop_fanout::5                      0      0.00%    100.00% # Request fanout histogram
system.tol2bus.snoop_fanout::6                      0      0.00%    100.00% # Request fanout histogram
system.tol2bus.snoop_fanout::7                      0      0.00%    100.00% # Request fanout histogram
system.tol2bus.snoop_fanout::8                      0      0.00%    100.00% # Request fanout histogram
system.tol2bus.snoop_fanout::overflows              0      0.00%    100.00% # Request fanout histogram
system.tol2bus.snoop_fanout::min_value              0                       # Request fanout histogram
system.tol2bus.snoop_fanout::max_value              2                       # Request fanout histogram
system.tol2bus.snoop_fanout::total             421948                       # Request fanout histogram
system.tol2bus.reqLayer0.occupancy          229384000                       # Layer occupancy (ticks)
system.tol2bus.reqLayer0.utilization              1.5                       # Layer utilization (%)
system.tol2bus.respLayer1.occupancy         340906500                       # Layer occupancy (ticks)
system.tol2bus.respLayer1.utilization             2.2                       # Layer utilization (%)

---------- End Simulation Statistics   ----------
