
---------- Begin Simulation Statistics ----------
sim_seconds                                  0.015267                       # Number of seconds simulated
sim_ticks                                 15267344125                       # Number of ticks simulated
final_tick                               6687096726750                       # Number of ticks from beginning of simulation (restored from checkpoints and never reset)
sim_freq                                 1000000000000                       # Frequency of simulated ticks
host_inst_rate                              128369997                       # Simulator instruction rate (inst/s)
host_op_rate                                238652076                       # Simulator op (including micro ops) rate (op/s)
host_tick_rate                              336421035                       # Simulator tick rate (ticks/s)
host_mem_usage                                1248940                       # Number of bytes of host memory used
host_seconds                                    45.38                       # Real time elapsed on the host
sim_insts                                  5825641071                       # Number of instructions simulated
sim_ops                                   10830424840                       # Number of ops (including micro ops) simulated
system.voltage_domain.voltage                       1                       # Voltage in Volts
system.clk_domain.clock                          1000                       # Clock period in ticks
system.mem_ctrls.pwrStateResidencyTicks::UNDEFINED  15267344125                       # Cumulative time (in ticks) in various power states
system.mem_ctrls.bytes_read::cpu0.data       12557568                       # Number of bytes read from this memory
system.mem_ctrls.bytes_read::total           12557568                       # Number of bytes read from this memory
system.mem_ctrls.bytes_written::writebacks        24832                       # Number of bytes written to this memory
system.mem_ctrls.bytes_written::total           24832                       # Number of bytes written to this memory
system.mem_ctrls.num_reads::cpu0.data          196212                       # Number of read requests responded to by this memory
system.mem_ctrls.num_reads::total              196212                       # Number of read requests responded to by this memory
system.mem_ctrls.num_writes::writebacks           388                       # Number of write requests responded to by this memory
system.mem_ctrls.num_writes::total                388                       # Number of write requests responded to by this memory
system.mem_ctrls.bw_read::cpu0.data         822511623                       # Total read bandwidth from this memory (bytes/s)
system.mem_ctrls.bw_read::total             822511623                       # Total read bandwidth from this memory (bytes/s)
system.mem_ctrls.bw_write::writebacks         1626478                       # Write bandwidth from this memory (bytes/s)
system.mem_ctrls.bw_write::total              1626478                       # Write bandwidth from this memory (bytes/s)
system.mem_ctrls.bw_total::writebacks         1626478                       # Total bandwidth to/from this memory (bytes/s)
system.mem_ctrls.bw_total::cpu0.data        822511623                       # Total bandwidth to/from this memory (bytes/s)
system.mem_ctrls.bw_total::total            824138101                       # Total bandwidth to/from this memory (bytes/s)
system.mem_ctrls.readReqs                      196211                       # Number of read requests accepted
system.mem_ctrls.writeReqs                        388                       # Number of write requests accepted
system.mem_ctrls.readBursts                    196211                       # Number of DRAM read bursts, including those serviced by the write queue
system.mem_ctrls.writeBursts                      388                       # Number of DRAM write bursts, including those merged in the write queue
system.mem_ctrls.bytesReadDRAM               12553536                       # Total number of bytes read from DRAM
system.mem_ctrls.bytesReadWrQ                    3968                       # Total number of bytes read from write queue
system.mem_ctrls.bytesWritten                   24576                       # Total number of bytes written to DRAM
system.mem_ctrls.bytesReadSys                12557504                       # Total read bytes from the system interface side
system.mem_ctrls.bytesWrittenSys                24832                       # Total written bytes from the system interface side
system.mem_ctrls.servicedByWrQ                     62                       # Number of DRAM read bursts serviced by the write queue
system.mem_ctrls.mergedWrBursts                     4                       # Number of DRAM write bursts merged with an existing one
system.mem_ctrls.neitherReadNorWriteReqs            0                       # Number of requests that are neither read nor write
system.mem_ctrls.perBankRdBursts::0             12181                       # Per bank write bursts
system.mem_ctrls.perBankRdBursts::1             12372                       # Per bank write bursts
system.mem_ctrls.perBankRdBursts::2             12269                       # Per bank write bursts
system.mem_ctrls.perBankRdBursts::3             12844                       # Per bank write bursts
system.mem_ctrls.perBankRdBursts::4             12729                       # Per bank write bursts
system.mem_ctrls.perBankRdBursts::5             12173                       # Per bank write bursts
system.mem_ctrls.perBankRdBursts::6             12578                       # Per bank write bursts
system.mem_ctrls.perBankRdBursts::7             12011                       # Per bank write bursts
system.mem_ctrls.perBankRdBursts::8             12097                       # Per bank write bursts
system.mem_ctrls.perBankRdBursts::9             12038                       # Per bank write bursts
system.mem_ctrls.perBankRdBursts::10            12153                       # Per bank write bursts
system.mem_ctrls.perBankRdBursts::11            12315                       # Per bank write bursts
system.mem_ctrls.perBankRdBursts::12            12279                       # Per bank write bursts
system.mem_ctrls.perBankRdBursts::13            12090                       # Per bank write bursts
system.mem_ctrls.perBankRdBursts::14            12057                       # Per bank write bursts
system.mem_ctrls.perBankRdBursts::15            11963                       # Per bank write bursts
system.mem_ctrls.perBankWrBursts::0                 0                       # Per bank write bursts
system.mem_ctrls.perBankWrBursts::1                 0                       # Per bank write bursts
system.mem_ctrls.perBankWrBursts::2                13                       # Per bank write bursts
system.mem_ctrls.perBankWrBursts::3               243                       # Per bank write bursts
system.mem_ctrls.perBankWrBursts::4                92                       # Per bank write bursts
system.mem_ctrls.perBankWrBursts::5                 0                       # Per bank write bursts
system.mem_ctrls.perBankWrBursts::6                 0                       # Per bank write bursts
system.mem_ctrls.perBankWrBursts::7                 0                       # Per bank write bursts
system.mem_ctrls.perBankWrBursts::8                 0                       # Per bank write bursts
system.mem_ctrls.perBankWrBursts::9                 0                       # Per bank write bursts
system.mem_ctrls.perBankWrBursts::10                0                       # Per bank write bursts
system.mem_ctrls.perBankWrBursts::11                0                       # Per bank write bursts
system.mem_ctrls.perBankWrBursts::12               24                       # Per bank write bursts
system.mem_ctrls.perBankWrBursts::13                0                       # Per bank write bursts
system.mem_ctrls.perBankWrBursts::14               12                       # Per bank write bursts
system.mem_ctrls.perBankWrBursts::15                0                       # Per bank write bursts
system.mem_ctrls.numRdRetry                         0                       # Number of times read queue was full causing retry
system.mem_ctrls.numWrRetry                         0                       # Number of times write queue was full causing retry
system.mem_ctrls.totGap                   15267286500                       # Total gap between requests
system.mem_ctrls.readPktSize::0                     0                       # Read request sizes (log2)
system.mem_ctrls.readPktSize::1                     0                       # Read request sizes (log2)
system.mem_ctrls.readPktSize::2                     0                       # Read request sizes (log2)
system.mem_ctrls.readPktSize::3                     0                       # Read request sizes (log2)
system.mem_ctrls.readPktSize::4                     0                       # Read request sizes (log2)
system.mem_ctrls.readPktSize::5                     0                       # Read request sizes (log2)
system.mem_ctrls.readPktSize::6                196211                       # Read request sizes (log2)
system.mem_ctrls.writePktSize::0                    0                       # Write request sizes (log2)
system.mem_ctrls.writePktSize::1                    0                       # Write request sizes (log2)
system.mem_ctrls.writePktSize::2                    0                       # Write request sizes (log2)
system.mem_ctrls.writePktSize::3                    0                       # Write request sizes (log2)
system.mem_ctrls.writePktSize::4                    0                       # Write request sizes (log2)
system.mem_ctrls.writePktSize::5                    0                       # Write request sizes (log2)
system.mem_ctrls.writePktSize::6                  388                       # Write request sizes (log2)
system.mem_ctrls.rdQLenPdf::0                  147673                       # What read queue length does an incoming req see
system.mem_ctrls.rdQLenPdf::1                   45179                       # What read queue length does an incoming req see
system.mem_ctrls.rdQLenPdf::2                    3265                       # What read queue length does an incoming req see
system.mem_ctrls.rdQLenPdf::3                      32                       # What read queue length does an incoming req see
system.mem_ctrls.rdQLenPdf::4                       0                       # What read queue length does an incoming req see
system.mem_ctrls.rdQLenPdf::5                       0                       # What read queue length does an incoming req see
system.mem_ctrls.rdQLenPdf::6                       0                       # What read queue length does an incoming req see
system.mem_ctrls.rdQLenPdf::7                       0                       # What read queue length does an incoming req see
system.mem_ctrls.rdQLenPdf::8                       0                       # What read queue length does an incoming req see
system.mem_ctrls.rdQLenPdf::9                       0                       # What read queue length does an incoming req see
system.mem_ctrls.rdQLenPdf::10                      0                       # What read queue length does an incoming req see
system.mem_ctrls.rdQLenPdf::11                      0                       # What read queue length does an incoming req see
system.mem_ctrls.rdQLenPdf::12                      0                       # What read queue length does an incoming req see
system.mem_ctrls.rdQLenPdf::13                      0                       # What read queue length does an incoming req see
system.mem_ctrls.rdQLenPdf::14                      0                       # What read queue length does an incoming req see
system.mem_ctrls.rdQLenPdf::15                      0                       # What read queue length does an incoming req see
system.mem_ctrls.rdQLenPdf::16                      0                       # What read queue length does an incoming req see
system.mem_ctrls.rdQLenPdf::17                      0                       # What read queue length does an incoming req see
system.mem_ctrls.rdQLenPdf::18                      0                       # What read queue length does an incoming req see
system.mem_ctrls.rdQLenPdf::19                      0                       # What read queue length does an incoming req see
system.mem_ctrls.rdQLenPdf::20                      0                       # What read queue length does an incoming req see
system.mem_ctrls.rdQLenPdf::21                      0                       # What read queue length does an incoming req see
system.mem_ctrls.rdQLenPdf::22                      0                       # What read queue length does an incoming req see
system.mem_ctrls.rdQLenPdf::23                      0                       # What read queue length does an incoming req see
system.mem_ctrls.rdQLenPdf::24                      0                       # What read queue length does an incoming req see
system.mem_ctrls.rdQLenPdf::25                      0                       # What read queue length does an incoming req see
system.mem_ctrls.rdQLenPdf::26                      0                       # What read queue length does an incoming req see
system.mem_ctrls.rdQLenPdf::27                      0                       # What read queue length does an incoming req see
system.mem_ctrls.rdQLenPdf::28                      0                       # What read queue length does an incoming req see
system.mem_ctrls.rdQLenPdf::29                      0                       # What read queue length does an incoming req see
system.mem_ctrls.rdQLenPdf::30                      0                       # What read queue length does an incoming req see
system.mem_ctrls.rdQLenPdf::31                      0                       # What read queue length does an incoming req see
system.mem_ctrls.wrQLenPdf::0                       0                       # What write queue length does an incoming req see
system.mem_ctrls.wrQLenPdf::1                       0                       # What write queue length does an incoming req see
system.mem_ctrls.wrQLenPdf::2                       0                       # What write queue length does an incoming req see
system.mem_ctrls.wrQLenPdf::3                       0                       # What write queue length does an incoming req see
system.mem_ctrls.wrQLenPdf::4                       0                       # What write queue length does an incoming req see
system.mem_ctrls.wrQLenPdf::5                       0                       # What write queue length does an incoming req see
system.mem_ctrls.wrQLenPdf::6                       0                       # What write queue length does an incoming req see
system.mem_ctrls.wrQLenPdf::7                       0                       # What write queue length does an incoming req see
system.mem_ctrls.wrQLenPdf::8                       0                       # What write queue length does an incoming req see
system.mem_ctrls.wrQLenPdf::9                       0                       # What write queue length does an incoming req see
system.mem_ctrls.wrQLenPdf::10                      0                       # What write queue length does an incoming req see
system.mem_ctrls.wrQLenPdf::11                      0                       # What write queue length does an incoming req see
system.mem_ctrls.wrQLenPdf::12                      0                       # What write queue length does an incoming req see
system.mem_ctrls.wrQLenPdf::13                      0                       # What write queue length does an incoming req see
system.mem_ctrls.wrQLenPdf::14                      0                       # What write queue length does an incoming req see
system.mem_ctrls.wrQLenPdf::15                      0                       # What write queue length does an incoming req see
system.mem_ctrls.wrQLenPdf::16                      0                       # What write queue length does an incoming req see
system.mem_ctrls.wrQLenPdf::17                     24                       # What write queue length does an incoming req see
system.mem_ctrls.wrQLenPdf::18                     24                       # What write queue length does an incoming req see
system.mem_ctrls.wrQLenPdf::19                     24                       # What write queue length does an incoming req see
system.mem_ctrls.wrQLenPdf::20                     24                       # What write queue length does an incoming req see
system.mem_ctrls.wrQLenPdf::21                     24                       # What write queue length does an incoming req see
system.mem_ctrls.wrQLenPdf::22                     24                       # What write queue length does an incoming req see
system.mem_ctrls.wrQLenPdf::23                     24                       # What write queue length does an incoming req see
system.mem_ctrls.wrQLenPdf::24                     24                       # What write queue length does an incoming req see
system.mem_ctrls.wrQLenPdf::25                     24                       # What write queue length does an incoming req see
system.mem_ctrls.wrQLenPdf::26                     24                       # What write queue length does an incoming req see
system.mem_ctrls.wrQLenPdf::27                     24                       # What write queue length does an incoming req see
system.mem_ctrls.wrQLenPdf::28                     24                       # What write queue length does an incoming req see
system.mem_ctrls.wrQLenPdf::29                     24                       # What write queue length does an incoming req see
system.mem_ctrls.wrQLenPdf::30                     24                       # What write queue length does an incoming req see
system.mem_ctrls.wrQLenPdf::31                     24                       # What write queue length does an incoming req see
system.mem_ctrls.wrQLenPdf::32                     24                       # What write queue length does an incoming req see
system.mem_ctrls.wrQLenPdf::33                      0                       # What write queue length does an incoming req see
system.mem_ctrls.wrQLenPdf::34                      0                       # What write queue length does an incoming req see
system.mem_ctrls.wrQLenPdf::35                      0                       # What write queue length does an incoming req see
system.mem_ctrls.wrQLenPdf::36                      0                       # What write queue length does an incoming req see
system.mem_ctrls.wrQLenPdf::37                      0                       # What write queue length does an incoming req see
system.mem_ctrls.wrQLenPdf::38                      0                       # What write queue length does an incoming req see
system.mem_ctrls.wrQLenPdf::39                      0                       # What write queue length does an incoming req see
system.mem_ctrls.wrQLenPdf::40                      0                       # What write queue length does an incoming req see
system.mem_ctrls.wrQLenPdf::41                      0                       # What write queue length does an incoming req see
system.mem_ctrls.wrQLenPdf::42                      0                       # What write queue length does an incoming req see
system.mem_ctrls.wrQLenPdf::43                      0                       # What write queue length does an incoming req see
system.mem_ctrls.wrQLenPdf::44                      0                       # What write queue length does an incoming req see
system.mem_ctrls.wrQLenPdf::45                      0                       # What write queue length does an incoming req see
system.mem_ctrls.wrQLenPdf::46                      0                       # What write queue length does an incoming req see
system.mem_ctrls.wrQLenPdf::47                      0                       # What write queue length does an incoming req see
system.mem_ctrls.wrQLenPdf::48                      0                       # What write queue length does an incoming req see
system.mem_ctrls.wrQLenPdf::49                      0                       # What write queue length does an incoming req see
system.mem_ctrls.wrQLenPdf::50                      0                       # What write queue length does an incoming req see
system.mem_ctrls.wrQLenPdf::51                      0                       # What write queue length does an incoming req see
system.mem_ctrls.wrQLenPdf::52                      0                       # What write queue length does an incoming req see
system.mem_ctrls.wrQLenPdf::53                      0                       # What write queue length does an incoming req see
system.mem_ctrls.wrQLenPdf::54                      0                       # What write queue length does an incoming req see
system.mem_ctrls.wrQLenPdf::55                      0                       # What write queue length does an incoming req see
system.mem_ctrls.wrQLenPdf::56                      0                       # What write queue length does an incoming req see
system.mem_ctrls.wrQLenPdf::57                      0                       # What write queue length does an incoming req see
system.mem_ctrls.wrQLenPdf::58                      0                       # What write queue length does an incoming req see
system.mem_ctrls.wrQLenPdf::59                      0                       # What write queue length does an incoming req see
system.mem_ctrls.wrQLenPdf::60                      0                       # What write queue length does an incoming req see
system.mem_ctrls.wrQLenPdf::61                      0                       # What write queue length does an incoming req see
system.mem_ctrls.wrQLenPdf::62                      0                       # What write queue length does an incoming req see
system.mem_ctrls.wrQLenPdf::63                      0                       # What write queue length does an incoming req see
system.mem_ctrls.bytesPerActivate::samples        97854                       # Bytes accessed per row activation
system.mem_ctrls.bytesPerActivate::mean    128.530423                       # Bytes accessed per row activation
system.mem_ctrls.bytesPerActivate::gmean   110.374883                       # Bytes accessed per row activation
system.mem_ctrls.bytesPerActivate::stdev    77.349598                       # Bytes accessed per row activation
system.mem_ctrls.bytesPerActivate::0-127        42279     43.21%     43.21% # Bytes accessed per row activation
system.mem_ctrls.bytesPerActivate::128-255        44423     45.40%     88.60% # Bytes accessed per row activation
system.mem_ctrls.bytesPerActivate::256-383         9638      9.85%     98.45% # Bytes accessed per row activation
system.mem_ctrls.bytesPerActivate::384-511         1310      1.34%     99.79% # Bytes accessed per row activation
system.mem_ctrls.bytesPerActivate::512-639          169      0.17%     99.96% # Bytes accessed per row activation
system.mem_ctrls.bytesPerActivate::640-767           17      0.02%     99.98% # Bytes accessed per row activation
system.mem_ctrls.bytesPerActivate::768-895            5      0.01%     99.99% # Bytes accessed per row activation
system.mem_ctrls.bytesPerActivate::896-1023            4      0.00%     99.99% # Bytes accessed per row activation
system.mem_ctrls.bytesPerActivate::1024-1151            9      0.01%    100.00% # Bytes accessed per row activation
system.mem_ctrls.bytesPerActivate::total        97854                       # Bytes accessed per row activation
system.mem_ctrls.rdPerTurnAround::samples           24                       # Reads before turning the bus around for writes
system.mem_ctrls.rdPerTurnAround::mean    8133.208333                       # Reads before turning the bus around for writes
system.mem_ctrls.rdPerTurnAround::gmean   7971.208277                       # Reads before turning the bus around for writes
system.mem_ctrls.rdPerTurnAround::stdev   1647.432336                       # Reads before turning the bus around for writes
system.mem_ctrls.rdPerTurnAround::5120-5631            1      4.17%      4.17% # Reads before turning the bus around for writes
system.mem_ctrls.rdPerTurnAround::5632-6143            2      8.33%     12.50% # Reads before turning the bus around for writes
system.mem_ctrls.rdPerTurnAround::6144-6655            2      8.33%     20.83% # Reads before turning the bus around for writes
system.mem_ctrls.rdPerTurnAround::6656-7167            3     12.50%     33.33% # Reads before turning the bus around for writes
system.mem_ctrls.rdPerTurnAround::7168-7679            2      8.33%     41.67% # Reads before turning the bus around for writes
system.mem_ctrls.rdPerTurnAround::8192-8703            4     16.67%     58.33% # Reads before turning the bus around for writes
system.mem_ctrls.rdPerTurnAround::8704-9215            4     16.67%     75.00% # Reads before turning the bus around for writes
system.mem_ctrls.rdPerTurnAround::9216-9727            2      8.33%     83.33% # Reads before turning the bus around for writes
system.mem_ctrls.rdPerTurnAround::9728-10239            2      8.33%     91.67% # Reads before turning the bus around for writes
system.mem_ctrls.rdPerTurnAround::10752-11263            1      4.17%     95.83% # Reads before turning the bus around for writes
system.mem_ctrls.rdPerTurnAround::11264-11775            1      4.17%    100.00% # Reads before turning the bus around for writes
system.mem_ctrls.rdPerTurnAround::total            24                       # Reads before turning the bus around for writes
system.mem_ctrls.wrPerTurnAround::samples           24                       # Writes before turning the bus around for reads
system.mem_ctrls.wrPerTurnAround::mean             16                       # Writes before turning the bus around for reads
system.mem_ctrls.wrPerTurnAround::gmean     16.000000                       # Writes before turning the bus around for reads
system.mem_ctrls.wrPerTurnAround::16               24    100.00%    100.00% # Writes before turning the bus around for reads
system.mem_ctrls.wrPerTurnAround::total            24                       # Writes before turning the bus around for reads
system.mem_ctrls.totQLat                   4801794500                       # Total ticks spent queuing
system.mem_ctrls.totMemAccLat              8479588250                       # Total ticks spent from burst creation until serviced by the DRAM
system.mem_ctrls.totBusLat                  980745000                       # Total ticks spent in databus transfers
system.mem_ctrls.avgQLat                     24480.34                       # Average queueing delay per DRAM burst
system.mem_ctrls.avgBusLat                    5000.00                       # Average bus latency per DRAM burst
system.mem_ctrls.avgMemAccLat                43230.34                       # Average memory access latency per DRAM burst
system.mem_ctrls.avgRdBW                       822.25                       # Average DRAM read bandwidth in MiByte/s
system.mem_ctrls.avgWrBW                         1.61                       # Average achieved write bandwidth in MiByte/s
system.mem_ctrls.avgRdBWSys                    822.51                       # Average system read bandwidth in MiByte/s
system.mem_ctrls.avgWrBWSys                      1.63                       # Average system write bandwidth in MiByte/s
system.mem_ctrls.peakBW                      12800.00                       # Theoretical peak bandwidth in MiByte/s
system.mem_ctrls.busUtil                         6.44                       # Data bus utilization in percentage
system.mem_ctrls.busUtilRead                     6.42                       # Data bus utilization in percentage for reads
system.mem_ctrls.busUtilWrite                    0.01                       # Data bus utilization in percentage for writes
system.mem_ctrls.avgRdQLen                       1.33                       # Average read queue length when enqueuing
system.mem_ctrls.avgWrQLen                      25.47                       # Average write queue length when enqueuing
system.mem_ctrls.readRowHits                    98345                       # Number of row buffer hits during reads
system.mem_ctrls.writeRowHits                     331                       # Number of row buffer hits during writes
system.mem_ctrls.readRowHitRate                 50.14                       # Row buffer hit rate for reads
system.mem_ctrls.writeRowHitRate                86.20                       # Row buffer hit rate for writes
system.mem_ctrls.avgGap                      77656.99                       # Average gap between requests
system.mem_ctrls.pageHitRate                    50.21                       # Row buffer hit rate, read and write combined
system.mem_ctrls_0.actEnergy                353651340                       # Energy for activate commands per rank (pJ)
system.mem_ctrls_0.preEnergy                187951170                       # Energy for precharge commands per rank (pJ)
system.mem_ctrls_0.readEnergy               707980980                       # Energy for read commands per rank (pJ)
system.mem_ctrls_0.writeEnergy                1816560                       # Energy for write commands per rank (pJ)
system.mem_ctrls_0.refreshEnergy         1204694400.000000                       # Energy for refresh commands per rank (pJ)
system.mem_ctrls_0.actBackEnergy           1652527470                       # Energy for active background per rank (pJ)
system.mem_ctrls_0.preBackEnergy             23986560                       # Energy for precharge background per rank (pJ)
system.mem_ctrls_0.actPowerDownEnergy      5166502230                       # Energy for active power-down per rank (pJ)
system.mem_ctrls_0.prePowerDownEnergy        96332640                       # Energy for precharge power-down per rank (pJ)
system.mem_ctrls_0.selfRefreshEnergy                0                       # Energy for self refresh per rank (pJ)
system.mem_ctrls_0.totalEnergy             9395443350                       # Total energy per rank (pJ)
system.mem_ctrls_0.averagePower            615.394745                       # Core power per rank (mW)
system.mem_ctrls_0.totalIdleTime          11580543875                       # Total Idle time Per DRAM Rank
system.mem_ctrls_0.memoryStateTime::IDLE      9245500                       # Time in different power states
system.mem_ctrls_0.memoryStateTime::REF     509600000                       # Time in different power states
system.mem_ctrls_0.memoryStateTime::SREF            0                       # Time in different power states
system.mem_ctrls_0.memoryStateTime::PRE_PDN    251196750                       # Time in different power states
system.mem_ctrls_0.memoryStateTime::ACT    3167909750                       # Time in different power states
system.mem_ctrls_0.memoryStateTime::ACT_PDN  11329392125                       # Time in different power states
system.mem_ctrls_1.actEnergy                345047640                       # Energy for activate commands per rank (pJ)
system.mem_ctrls_1.preEnergy                183404760                       # Energy for precharge commands per rank (pJ)
system.mem_ctrls_1.readEnergy               692522880                       # Energy for read commands per rank (pJ)
system.mem_ctrls_1.writeEnergy                 187920                       # Energy for write commands per rank (pJ)
system.mem_ctrls_1.refreshEnergy         1205309040.000000                       # Energy for refresh commands per rank (pJ)
system.mem_ctrls_1.actBackEnergy           1617777420                       # Energy for active background per rank (pJ)
system.mem_ctrls_1.preBackEnergy             24498720                       # Energy for precharge background per rank (pJ)
system.mem_ctrls_1.actPowerDownEnergy      5181693870                       # Energy for active power-down per rank (pJ)
system.mem_ctrls_1.prePowerDownEnergy       112290720                       # Energy for precharge power-down per rank (pJ)
system.mem_ctrls_1.selfRefreshEnergy                0                       # Energy for self refresh per rank (pJ)
system.mem_ctrls_1.totalEnergy             9362732970                       # Total energy per rank (pJ)
system.mem_ctrls_1.averagePower            613.252239                       # Core power per rank (mW)
system.mem_ctrls_1.totalIdleTime          11653993250                       # Total Idle time Per DRAM Rank
system.mem_ctrls_1.memoryStateTime::IDLE      9514000                       # Time in different power states
system.mem_ctrls_1.memoryStateTime::REF     509860000                       # Time in different power states
system.mem_ctrls_1.memoryStateTime::SREF            0                       # Time in different power states
system.mem_ctrls_1.memoryStateTime::PRE_PDN    292065000                       # Time in different power states
system.mem_ctrls_1.memoryStateTime::ACT    3093825375                       # Time in different power states
system.mem_ctrls_1.memoryStateTime::ACT_PDN  11362079750                       # Time in different power states
system.pwrStateResidencyTicks::UNDEFINED  15267344125                       # Cumulative time (in ticks) in various power states
system.cpu0.branchPred.lookups                1516734                       # Number of BP lookups
system.cpu0.branchPred.condPredicted          1516734                       # Number of conditional branches predicted
system.cpu0.branchPred.condIncorrect            69267                       # Number of conditional branches incorrect
system.cpu0.branchPred.BTBLookups             1213370                       # Number of BTB lookups
system.cpu0.branchPred.BTBHits                      0                       # Number of BTB hits
system.cpu0.branchPred.BTBCorrect                   0                       # Number of correct BTB predictions (this stat may not work properly.
system.cpu0.branchPred.BTBHitPct             0.000000                       # BTB Hit Percentage
system.cpu0.branchPred.usedRAS                  49259                       # Number of times the RAS was used to get a target.
system.cpu0.branchPred.RASInCorrect              8210                       # Number of incorrect RAS predictions.
system.cpu0.branchPred.indirectLookups        1213370                       # Number of indirect predictor lookups.
system.cpu0.branchPred.indirectHits            630775                       # Number of indirect target hits.
system.cpu0.branchPred.indirectMisses          582595                       # Number of indirect misses.
system.cpu0.branchPredindirectMispredicted        23803                       # Number of mispredicted indirect branches.
system.cpu_voltage_domain.voltage                   1                       # Voltage in Volts
system.cpu_clk_domain.clock                       500                       # Clock period in ticks
system.cpu0.dtb.walker.pwrStateResidencyTicks::UNDEFINED  15267344125                       # Cumulative time (in ticks) in various power states
system.cpu0.dtb.rdAccesses                     731207                       # TLB accesses on read requests
system.cpu0.dtb.wrAccesses                      53636                       # TLB accesses on write requests
system.cpu0.dtb.rdMisses                       142881                       # TLB misses on read requests
system.cpu0.dtb.wrMisses                          925                       # TLB misses on write requests
system.cpu0.apic_clk_domain.clock                8000                       # Clock period in ticks
system.cpu0.interrupts.pwrStateResidencyTicks::UNDEFINED  15267344125                       # Cumulative time (in ticks) in various power states
system.cpu0.itb.walker.pwrStateResidencyTicks::UNDEFINED  15267344125                       # Cumulative time (in ticks) in various power states
system.cpu0.itb.rdAccesses                          0                       # TLB accesses on read requests
system.cpu0.itb.wrAccesses                    1222390                       # TLB accesses on write requests
system.cpu0.itb.rdMisses                            0                       # TLB misses on read requests
system.cpu0.itb.wrMisses                         7835                       # TLB misses on write requests
system.cpu0.workload.numSyscalls                    0                       # Number of system calls
system.cpu0.pwrStateResidencyTicks::ON    15267344125                       # Cumulative time (in ticks) in various power states
system.cpu0.numCycles                        30534688                       # number of cpu cycles simulated
system.cpu0.numWorkItemsStarted                     0                       # number of work items this cpu started
system.cpu0.numWorkItemsCompleted                   0                       # number of work items this cpu completed
system.cpu0.fetch.icacheStallCycles           1252302                       # Number of cycles fetch is stalled on an Icache miss
system.cpu0.fetch.Insts                       4505861                       # Number of instructions fetch has processed
system.cpu0.fetch.Branches                    1516734                       # Number of branches that fetch encountered
system.cpu0.fetch.predictedBranches            680034                       # Number of branches that fetch has predicted taken
system.cpu0.fetch.Cycles                     29039310                       # Number of cycles fetch has run and was not squashing or blocked
system.cpu0.fetch.SquashCycles                 143434                       # Number of cycles fetch has spent squashing
system.cpu0.fetch.TlbCycles                      4240                       # Number of cycles fetch has spent waiting for tlb
system.cpu0.fetch.MiscStallCycles                1723                       # Number of cycles fetch has spent waiting on interrupts, or bad addresses, or out of MSHRs
system.cpu0.fetch.PendingTrapStallCycles        70110                       # Number of stall cycles due to pending traps
system.cpu0.fetch.CacheLines                  1214555                       # Number of cache lines fetched
system.cpu0.fetch.IcacheSquashes                 7537                       # Number of outstanding Icache misses that were squashed
system.cpu0.fetch.ItlbSquashes                     10                       # Number of outstanding ITLB misses that were squashed
system.cpu0.fetch.rateDist::samples          30439402                       # Number of instructions fetched each cycle (Total)
system.cpu0.fetch.rateDist::mean             0.298462                       # Number of instructions fetched each cycle (Total)
system.cpu0.fetch.rateDist::stdev            1.379752                       # Number of instructions fetched each cycle (Total)
system.cpu0.fetch.rateDist::underflows              0      0.00%      0.00% # Number of instructions fetched each cycle (Total)
system.cpu0.fetch.rateDist::0                28705734     94.30%     94.30% # Number of instructions fetched each cycle (Total)
system.cpu0.fetch.rateDist::1                   23077      0.08%     94.38% # Number of instructions fetched each cycle (Total)
system.cpu0.fetch.rateDist::2                  593921      1.95%     96.33% # Number of instructions fetched each cycle (Total)
system.cpu0.fetch.rateDist::3                   28991      0.10%     96.43% # Number of instructions fetched each cycle (Total)
system.cpu0.fetch.rateDist::4                  123834      0.41%     96.83% # Number of instructions fetched each cycle (Total)
system.cpu0.fetch.rateDist::5                   74907      0.25%     97.08% # Number of instructions fetched each cycle (Total)
system.cpu0.fetch.rateDist::6                   83773      0.28%     97.35% # Number of instructions fetched each cycle (Total)
system.cpu0.fetch.rateDist::7                   26707      0.09%     97.44% # Number of instructions fetched each cycle (Total)
system.cpu0.fetch.rateDist::8                  778458      2.56%    100.00% # Number of instructions fetched each cycle (Total)
system.cpu0.fetch.rateDist::overflows               0      0.00%    100.00% # Number of instructions fetched each cycle (Total)
system.cpu0.fetch.rateDist::min_value               0                       # Number of instructions fetched each cycle (Total)
system.cpu0.fetch.rateDist::max_value               8                       # Number of instructions fetched each cycle (Total)
system.cpu0.fetch.rateDist::total            30439402                       # Number of instructions fetched each cycle (Total)
system.cpu0.fetch.branchRate                 0.049672                       # Number of branch fetches per cycle
system.cpu0.fetch.rate                       0.147565                       # Number of inst fetches per cycle
system.cpu0.decode.IdleCycles                  636256                       # Number of cycles decode is idle
system.cpu0.decode.BlockedCycles             28602200                       # Number of cycles decode is blocked
system.cpu0.decode.RunCycles                   829793                       # Number of cycles decode is running
system.cpu0.decode.UnblockCycles               299436                       # Number of cycles decode is unblocking
system.cpu0.decode.SquashCycles                 71717                       # Number of cycles decode is squashing
system.cpu0.decode.DecodedInsts               7402008                       # Number of instructions handled by decode
system.cpu0.rename.SquashCycles                 71717                       # Number of cycles rename is squashing
system.cpu0.rename.IdleCycles                  729123                       # Number of cycles rename is idle
system.cpu0.rename.BlockCycles               27270739                       # Number of cycles rename is blocking
system.cpu0.rename.serializeStallCycles         23835                       # count of cycles rename stalled for serializing inst
system.cpu0.rename.RunCycles                   960448                       # Number of cycles rename is running
system.cpu0.rename.UnblockCycles              1383540                       # Number of cycles rename is unblocking
system.cpu0.rename.RenamedInsts               7082133                       # Number of instructions processed by rename
system.cpu0.rename.ROBFullEvents                97696                       # Number of times rename has blocked due to ROB full
system.cpu0.rename.IQFullEvents                994004                       # Number of times rename has blocked due to IQ full
system.cpu0.rename.LQFullEvents                346768                       # Number of times rename has blocked due to LQ full
system.cpu0.rename.SQFullEvents                   321                       # Number of times rename has blocked due to SQ full
system.cpu0.rename.RenamedOperands            8434734                       # Number of destination operands rename has renamed
system.cpu0.rename.RenameLookups             19550752                       # Number of register rename lookups that rename has made
system.cpu0.rename.int_rename_lookups         9353712                       # Number of integer rename lookups
system.cpu0.rename.fp_rename_lookups            32239                       # Number of floating rename lookups
system.cpu0.rename.CommittedMaps              2843668                       # Number of HB maps that are committed
system.cpu0.rename.UndoneMaps                 5591063                       # Number of HB maps that are undone due to squashing
system.cpu0.rename.serializingInsts               276                       # count of serializing insts renamed
system.cpu0.rename.tempSerializingInsts           342                       # count of temporary serializing insts renamed
system.cpu0.rename.skidInsts                  1917862                       # count of insts added to the skid buffer
system.cpu0.memDep0.insertedLoads             1263898                       # Number of loads inserted to the mem dependence unit.
system.cpu0.memDep0.insertedStores              80005                       # Number of stores inserted to the mem dependence unit.
system.cpu0.memDep0.conflictingLoads             4784                       # Number of conflicting loads.
system.cpu0.memDep0.conflictingStores            4994                       # Number of conflicting stores.
system.cpu0.iq.iqInstsAdded                   6698463                       # Number of instructions added to the IQ (excludes non-spec)
system.cpu0.iq.iqNonSpecInstsAdded               4778                       # Number of non-speculative instructions added to the IQ
system.cpu0.iq.iqInstsIssued                  4830539                       # Number of instructions issued
system.cpu0.iq.iqSquashedInstsIssued             6384                       # Number of squashed instructions issued
system.cpu0.iq.iqSquashedInstsExamined        4333938                       # Number of squashed instructions iterated over during squash; mainly for profiling
system.cpu0.iq.iqSquashedOperandsExamined      8613706                       # Number of squashed operands that are examined and possibly removed from graph
system.cpu0.iq.iqSquashedNonSpecRemoved          4778                       # Number of squashed non-spec instructions that were removed
system.cpu0.iq.issued_per_cycle::samples     30439402                       # Number of insts issued each cycle
system.cpu0.iq.issued_per_cycle::mean        0.158694                       # Number of insts issued each cycle
system.cpu0.iq.issued_per_cycle::stdev       0.729084                       # Number of insts issued each cycle
system.cpu0.iq.issued_per_cycle::underflows            0      0.00%      0.00% # Number of insts issued each cycle
system.cpu0.iq.issued_per_cycle::0           28460776     93.50%     93.50% # Number of insts issued each cycle
system.cpu0.iq.issued_per_cycle::1             789110      2.59%     96.09% # Number of insts issued each cycle
system.cpu0.iq.issued_per_cycle::2             413680      1.36%     97.45% # Number of insts issued each cycle
system.cpu0.iq.issued_per_cycle::3             282181      0.93%     98.38% # Number of insts issued each cycle
system.cpu0.iq.issued_per_cycle::4             283633      0.93%     99.31% # Number of insts issued each cycle
system.cpu0.iq.issued_per_cycle::5              90289      0.30%     99.61% # Number of insts issued each cycle
system.cpu0.iq.issued_per_cycle::6              75017      0.25%     99.85% # Number of insts issued each cycle
system.cpu0.iq.issued_per_cycle::7              26281      0.09%     99.94% # Number of insts issued each cycle
system.cpu0.iq.issued_per_cycle::8              18435      0.06%    100.00% # Number of insts issued each cycle
system.cpu0.iq.issued_per_cycle::overflows            0      0.00%    100.00% # Number of insts issued each cycle
system.cpu0.iq.issued_per_cycle::min_value            0                       # Number of insts issued each cycle
system.cpu0.iq.issued_per_cycle::max_value            8                       # Number of insts issued each cycle
system.cpu0.iq.issued_per_cycle::total       30439402                       # Number of insts issued each cycle
system.cpu0.iq.fu_full::No_OpClass                  0      0.00%      0.00% # attempts to use FU when none available
system.cpu0.iq.fu_full::IntAlu                  10438     65.06%     65.06% # attempts to use FU when none available
system.cpu0.iq.fu_full::IntMult                     0      0.00%     65.06% # attempts to use FU when none available
system.cpu0.iq.fu_full::IntDiv                      0      0.00%     65.06% # attempts to use FU when none available
system.cpu0.iq.fu_full::FloatAdd                  965      6.02%     71.08% # attempts to use FU when none available
system.cpu0.iq.fu_full::FloatCmp                    0      0.00%     71.08% # attempts to use FU when none available
system.cpu0.iq.fu_full::FloatCvt                    0      0.00%     71.08% # attempts to use FU when none available
system.cpu0.iq.fu_full::FloatMult                   0      0.00%     71.08% # attempts to use FU when none available
system.cpu0.iq.fu_full::FloatMultAcc                0      0.00%     71.08% # attempts to use FU when none available
system.cpu0.iq.fu_full::FloatDiv                    0      0.00%     71.08% # attempts to use FU when none available
system.cpu0.iq.fu_full::FloatMisc                   0      0.00%     71.08% # attempts to use FU when none available
system.cpu0.iq.fu_full::FloatSqrt                   0      0.00%     71.08% # attempts to use FU when none available
system.cpu0.iq.fu_full::SimdAdd                     0      0.00%     71.08% # attempts to use FU when none available
system.cpu0.iq.fu_full::SimdAddAcc                  0      0.00%     71.08% # attempts to use FU when none available
system.cpu0.iq.fu_full::SimdAlu                     0      0.00%     71.08% # attempts to use FU when none available
system.cpu0.iq.fu_full::SimdCmp                     0      0.00%     71.08% # attempts to use FU when none available
system.cpu0.iq.fu_full::SimdCvt                     0      0.00%     71.08% # attempts to use FU when none available
system.cpu0.iq.fu_full::SimdMisc                    0      0.00%     71.08% # attempts to use FU when none available
system.cpu0.iq.fu_full::SimdMult                    0      0.00%     71.08% # attempts to use FU when none available
system.cpu0.iq.fu_full::SimdMultAcc                 0      0.00%     71.08% # attempts to use FU when none available
system.cpu0.iq.fu_full::SimdShift                   0      0.00%     71.08% # attempts to use FU when none available
system.cpu0.iq.fu_full::SimdShiftAcc                0      0.00%     71.08% # attempts to use FU when none available
system.cpu0.iq.fu_full::SimdSqrt                    0      0.00%     71.08% # attempts to use FU when none available
system.cpu0.iq.fu_full::SimdFloatAdd                0      0.00%     71.08% # attempts to use FU when none available
system.cpu0.iq.fu_full::SimdFloatAlu                0      0.00%     71.08% # attempts to use FU when none available
system.cpu0.iq.fu_full::SimdFloatCmp                0      0.00%     71.08% # attempts to use FU when none available
system.cpu0.iq.fu_full::SimdFloatCvt                0      0.00%     71.08% # attempts to use FU when none available
system.cpu0.iq.fu_full::SimdFloatDiv                0      0.00%     71.08% # attempts to use FU when none available
system.cpu0.iq.fu_full::SimdFloatMisc               0      0.00%     71.08% # attempts to use FU when none available
system.cpu0.iq.fu_full::SimdFloatMult               0      0.00%     71.08% # attempts to use FU when none available
system.cpu0.iq.fu_full::SimdFloatMultAcc            0      0.00%     71.08% # attempts to use FU when none available
system.cpu0.iq.fu_full::SimdFloatSqrt               0      0.00%     71.08% # attempts to use FU when none available
system.cpu0.iq.fu_full::MemRead                  4332     27.00%     98.08% # attempts to use FU when none available
system.cpu0.iq.fu_full::MemWrite                  244      1.52%     99.60% # attempts to use FU when none available
system.cpu0.iq.fu_full::FloatMemRead               61      0.38%     99.98% # attempts to use FU when none available
system.cpu0.iq.fu_full::FloatMemWrite               3      0.02%    100.00% # attempts to use FU when none available
system.cpu0.iq.fu_full::IprAccess                   0      0.00%    100.00% # attempts to use FU when none available
system.cpu0.iq.fu_full::InstPrefetch                0      0.00%    100.00% # attempts to use FU when none available
system.cpu0.iq.FU_type_0::No_OpClass            20026      0.41%      0.41% # Type of FU issued
system.cpu0.iq.FU_type_0::IntAlu              3963643     82.05%     82.47% # Type of FU issued
system.cpu0.iq.FU_type_0::IntMult                1248      0.03%     82.49% # Type of FU issued
system.cpu0.iq.FU_type_0::IntDiv                 8746      0.18%     82.68% # Type of FU issued
system.cpu0.iq.FU_type_0::FloatAdd              12326      0.26%     82.93% # Type of FU issued
system.cpu0.iq.FU_type_0::FloatCmp                  0      0.00%     82.93% # Type of FU issued
system.cpu0.iq.FU_type_0::FloatCvt                  0      0.00%     82.93% # Type of FU issued
system.cpu0.iq.FU_type_0::FloatMult                 0      0.00%     82.93% # Type of FU issued
system.cpu0.iq.FU_type_0::FloatMultAcc              0      0.00%     82.93% # Type of FU issued
system.cpu0.iq.FU_type_0::FloatDiv                  0      0.00%     82.93% # Type of FU issued
system.cpu0.iq.FU_type_0::FloatMisc                 0      0.00%     82.93% # Type of FU issued
system.cpu0.iq.FU_type_0::FloatSqrt                 0      0.00%     82.93% # Type of FU issued
system.cpu0.iq.FU_type_0::SimdAdd                   0      0.00%     82.93% # Type of FU issued
system.cpu0.iq.FU_type_0::SimdAddAcc                0      0.00%     82.93% # Type of FU issued
system.cpu0.iq.FU_type_0::SimdAlu                   0      0.00%     82.93% # Type of FU issued
system.cpu0.iq.FU_type_0::SimdCmp                   0      0.00%     82.93% # Type of FU issued
system.cpu0.iq.FU_type_0::SimdCvt                   0      0.00%     82.93% # Type of FU issued
system.cpu0.iq.FU_type_0::SimdMisc                  0      0.00%     82.93% # Type of FU issued
system.cpu0.iq.FU_type_0::SimdMult                  0      0.00%     82.93% # Type of FU issued
system.cpu0.iq.FU_type_0::SimdMultAcc               0      0.00%     82.93% # Type of FU issued
system.cpu0.iq.FU_type_0::SimdShift                 0      0.00%     82.93% # Type of FU issued
system.cpu0.iq.FU_type_0::SimdShiftAcc              0      0.00%     82.93% # Type of FU issued
system.cpu0.iq.FU_type_0::SimdSqrt                  0      0.00%     82.93% # Type of FU issued
system.cpu0.iq.FU_type_0::SimdFloatAdd              0      0.00%     82.93% # Type of FU issued
system.cpu0.iq.FU_type_0::SimdFloatAlu              0      0.00%     82.93% # Type of FU issued
system.cpu0.iq.FU_type_0::SimdFloatCmp              0      0.00%     82.93% # Type of FU issued
system.cpu0.iq.FU_type_0::SimdFloatCvt              0      0.00%     82.93% # Type of FU issued
system.cpu0.iq.FU_type_0::SimdFloatDiv              0      0.00%     82.93% # Type of FU issued
system.cpu0.iq.FU_type_0::SimdFloatMisc             0      0.00%     82.93% # Type of FU issued
system.cpu0.iq.FU_type_0::SimdFloatMult             0      0.00%     82.93% # Type of FU issued
system.cpu0.iq.FU_type_0::SimdFloatMultAcc            0      0.00%     82.93% # Type of FU issued
system.cpu0.iq.FU_type_0::SimdFloatSqrt             0      0.00%     82.93% # Type of FU issued
system.cpu0.iq.FU_type_0::MemRead              764439     15.83%     98.76% # Type of FU issued
system.cpu0.iq.FU_type_0::MemWrite              58143      1.20%     99.96% # Type of FU issued
system.cpu0.iq.FU_type_0::FloatMemRead           1961      0.04%    100.00% # Type of FU issued
system.cpu0.iq.FU_type_0::FloatMemWrite             7      0.00%    100.00% # Type of FU issued
system.cpu0.iq.FU_type_0::IprAccess                 0      0.00%    100.00% # Type of FU issued
system.cpu0.iq.FU_type_0::InstPrefetch              0      0.00%    100.00% # Type of FU issued
system.cpu0.iq.FU_type_0::total               4830539                       # Type of FU issued
system.cpu0.iq.rate                          0.158198                       # Inst issue rate
system.cpu0.iq.fu_busy_cnt                      16043                       # FU busy when requested
system.cpu0.iq.fu_busy_rate                  0.003321                       # FU busy rate (busy events/executed inst)
system.cpu0.iq.int_inst_queue_reads          40093124                       # Number of integer instruction queue reads
system.cpu0.iq.int_inst_queue_writes         11011742                       # Number of integer instruction queue writes
system.cpu0.iq.int_inst_queue_wakeup_accesses      4619666                       # Number of integer instruction queue wakeup accesses
system.cpu0.iq.fp_inst_queue_reads              29782                       # Number of floating instruction queue reads
system.cpu0.iq.fp_inst_queue_writes             25438                       # Number of floating instruction queue writes
system.cpu0.iq.fp_inst_queue_wakeup_accesses        13297                       # Number of floating instruction queue wakeup accesses
system.cpu0.iq.vec_inst_queue_reads                 0                       # Number of vector instruction queue reads
system.cpu0.iq.vec_inst_queue_writes                0                       # Number of vector instruction queue writes
system.cpu0.iq.vec_inst_queue_wakeup_accesses            0                       # Number of vector instruction queue wakeup accesses
system.cpu0.iq.int_alu_accesses               4811229                       # Number of integer alu accesses
system.cpu0.iq.fp_alu_accesses                  15327                       # Number of floating point alu accesses
system.cpu0.iq.vec_alu_accesses                     0                       # Number of vector alu accesses
system.cpu0.iew.lsq.thread0.forwLoads            4180                       # Number of loads that had data forwarded from stores
system.cpu0.iew.lsq.thread0.invAddrLoads            0                       # Number of loads ignored due to an invalid address
system.cpu0.iew.lsq.thread0.squashedLoads       817760                       # Number of loads squashed
system.cpu0.iew.lsq.thread0.ignoredResponses          138                       # Number of memory responses ignored because the instruction is squashed
system.cpu0.iew.lsq.thread0.memOrderViolation            1                       # Number of memory ordering violations
system.cpu0.iew.lsq.thread0.squashedStores        55443                       # Number of stores squashed
system.cpu0.iew.lsq.thread0.invAddrSwpfs            0                       # Number of software prefetches ignored due to an invalid address
system.cpu0.iew.lsq.thread0.blockedLoads            0                       # Number of blocked loads due to partial load-store forwarding
system.cpu0.iew.lsq.thread0.rescheduledLoads           34                       # Number of loads that were rescheduled
system.cpu0.iew.lsq.thread0.cacheBlocked         1163                       # Number of times an access to memory failed due to the cache being blocked
system.cpu0.iew.iewIdleCycles                       0                       # Number of cycles IEW is idle
system.cpu0.iew.iewSquashCycles                 71717                       # Number of cycles IEW is squashing
system.cpu0.iew.iewBlockCycles               25047970                       # Number of cycles IEW is blocking
system.cpu0.iew.iewUnblockCycles               278239                       # Number of cycles IEW is unblocking
system.cpu0.iew.iewDispatchedInsts            6703241                       # Number of instructions dispatched to IQ
system.cpu0.iew.iewDispSquashedInsts             5439                       # Number of squashed instructions skipped by dispatch
system.cpu0.iew.iewDispLoadInsts              1263898                       # Number of dispatched load instructions
system.cpu0.iew.iewDispStoreInsts               80005                       # Number of dispatched store instructions
system.cpu0.iew.iewDispNonSpecInsts              1754                       # Number of dispatched non-speculative instructions
system.cpu0.iew.iewIQFullEvents                 19107                       # Number of times the IQ has become full, causing a stall
system.cpu0.iew.iewLSQFullEvents                80355                       # Number of times the LSQ has become full, causing a stall
system.cpu0.iew.memOrderViolationEvents             1                       # Number of memory order violations
system.cpu0.iew.predictedTakenIncorrect         36175                       # Number of branches that were predicted taken incorrectly
system.cpu0.iew.predictedNotTakenIncorrect        43650                       # Number of branches that were predicted not taken incorrectly
system.cpu0.iew.branchMispredicts               79825                       # Number of branch mispredicts detected at execute
system.cpu0.iew.iewExecutedInsts              4735976                       # Number of executed instructions
system.cpu0.iew.iewExecLoadInsts               730946                       # Number of load instructions executed
system.cpu0.iew.iewExecSquashedInsts            94562                       # Number of squashed instructions skipped in execute
system.cpu0.iew.exec_swp                            0                       # number of swp insts executed
system.cpu0.iew.exec_nop                            0                       # number of nop insts executed
system.cpu0.iew.exec_refs                      784564                       # number of memory reference insts executed
system.cpu0.iew.exec_branches                  562240                       # Number of branches executed
system.cpu0.iew.exec_stores                     53618                       # Number of stores executed
system.cpu0.iew.exec_rate                    0.155102                       # Inst execution rate
system.cpu0.iew.wb_sent                       4651866                       # cumulative count of insts sent to commit
system.cpu0.iew.wb_count                      4632963                       # cumulative count of insts written-back
system.cpu0.iew.wb_producers                  3397608                       # num instructions producing a value
system.cpu0.iew.wb_consumers                  5387698                       # num instructions consuming a value
system.cpu0.iew.wb_rate                      0.151728                       # insts written-back per cycle
system.cpu0.iew.wb_fanout                    0.630623                       # average fanout of values written-back
system.cpu0.commit.commitSquashedInsts        4334811                       # The number of squashed insts skipped by commit
system.cpu0.commit.branchMispredicts            71716                       # The number of times a branch was mispredicted
system.cpu0.commit.committed_per_cycle::samples     29812820                       # Number of insts commited each cycle
system.cpu0.commit.committed_per_cycle::mean     0.079473                       # Number of insts commited each cycle
system.cpu0.commit.committed_per_cycle::stdev     0.514545                       # Number of insts commited each cycle
system.cpu0.commit.committed_per_cycle::underflows            0      0.00%      0.00% # Number of insts commited each cycle
system.cpu0.commit.committed_per_cycle::0     28770988     96.51%     96.51% # Number of insts commited each cycle
system.cpu0.commit.committed_per_cycle::1       483311      1.62%     98.13% # Number of insts commited each cycle
system.cpu0.commit.committed_per_cycle::2       115536      0.39%     98.51% # Number of insts commited each cycle
system.cpu0.commit.committed_per_cycle::3       313497      1.05%     99.57% # Number of insts commited each cycle
system.cpu0.commit.committed_per_cycle::4        56209      0.19%     99.75% # Number of insts commited each cycle
system.cpu0.commit.committed_per_cycle::5        27351      0.09%     99.85% # Number of insts commited each cycle
system.cpu0.commit.committed_per_cycle::6         5377      0.02%     99.86% # Number of insts commited each cycle
system.cpu0.commit.committed_per_cycle::7         3830      0.01%     99.88% # Number of insts commited each cycle
system.cpu0.commit.committed_per_cycle::8        36721      0.12%    100.00% # Number of insts commited each cycle
system.cpu0.commit.committed_per_cycle::overflows            0      0.00%    100.00% # Number of insts commited each cycle
system.cpu0.commit.committed_per_cycle::min_value            0                       # Number of insts commited each cycle
system.cpu0.commit.committed_per_cycle::max_value            8                       # Number of insts commited each cycle
system.cpu0.commit.committed_per_cycle::total     29812820                       # Number of insts commited each cycle
system.cpu0.commit.committedInsts             1186111                       # Number of instructions committed
system.cpu0.commit.committedOps               2369305                       # Number of ops (including micro ops) committed
system.cpu0.commit.swp_count                        0                       # Number of s/w prefetches committed
system.cpu0.commit.refs                        470700                       # Number of memory references committed
system.cpu0.commit.loads                       446138                       # Number of loads committed
system.cpu0.commit.membars                          0                       # Number of memory barriers committed
system.cpu0.commit.branches                    426018                       # Number of branches committed
system.cpu0.commit.vec_insts                        0                       # Number of committed Vector instructions.
system.cpu0.commit.fp_insts                      9850                       # Number of committed floating point instructions.
system.cpu0.commit.int_insts                  2359342                       # Number of committed integer instructions.
system.cpu0.commit.function_calls                4325                       # Number of function calls committed.
system.cpu0.commit.op_class_0::No_OpClass         2989      0.13%      0.13% # Class of committed instruction
system.cpu0.commit.op_class_0::IntAlu         1879746     79.34%     79.46% # Class of committed instruction
system.cpu0.commit.op_class_0::IntMult            173      0.01%     79.47% # Class of committed instruction
system.cpu0.commit.op_class_0::IntDiv            7285      0.31%     79.78% # Class of committed instruction
system.cpu0.commit.op_class_0::FloatAdd          8412      0.36%     80.13% # Class of committed instruction
system.cpu0.commit.op_class_0::FloatCmp             0      0.00%     80.13% # Class of committed instruction
system.cpu0.commit.op_class_0::FloatCvt             0      0.00%     80.13% # Class of committed instruction
system.cpu0.commit.op_class_0::FloatMult            0      0.00%     80.13% # Class of committed instruction
system.cpu0.commit.op_class_0::FloatMultAcc            0      0.00%     80.13% # Class of committed instruction
system.cpu0.commit.op_class_0::FloatDiv             0      0.00%     80.13% # Class of committed instruction
system.cpu0.commit.op_class_0::FloatMisc            0      0.00%     80.13% # Class of committed instruction
system.cpu0.commit.op_class_0::FloatSqrt            0      0.00%     80.13% # Class of committed instruction
system.cpu0.commit.op_class_0::SimdAdd              0      0.00%     80.13% # Class of committed instruction
system.cpu0.commit.op_class_0::SimdAddAcc            0      0.00%     80.13% # Class of committed instruction
system.cpu0.commit.op_class_0::SimdAlu              0      0.00%     80.13% # Class of committed instruction
system.cpu0.commit.op_class_0::SimdCmp              0      0.00%     80.13% # Class of committed instruction
system.cpu0.commit.op_class_0::SimdCvt              0      0.00%     80.13% # Class of committed instruction
system.cpu0.commit.op_class_0::SimdMisc             0      0.00%     80.13% # Class of committed instruction
system.cpu0.commit.op_class_0::SimdMult             0      0.00%     80.13% # Class of committed instruction
system.cpu0.commit.op_class_0::SimdMultAcc            0      0.00%     80.13% # Class of committed instruction
system.cpu0.commit.op_class_0::SimdShift            0      0.00%     80.13% # Class of committed instruction
system.cpu0.commit.op_class_0::SimdShiftAcc            0      0.00%     80.13% # Class of committed instruction
system.cpu0.commit.op_class_0::SimdSqrt             0      0.00%     80.13% # Class of committed instruction
system.cpu0.commit.op_class_0::SimdFloatAdd            0      0.00%     80.13% # Class of committed instruction
system.cpu0.commit.op_class_0::SimdFloatAlu            0      0.00%     80.13% # Class of committed instruction
system.cpu0.commit.op_class_0::SimdFloatCmp            0      0.00%     80.13% # Class of committed instruction
system.cpu0.commit.op_class_0::SimdFloatCvt            0      0.00%     80.13% # Class of committed instruction
system.cpu0.commit.op_class_0::SimdFloatDiv            0      0.00%     80.13% # Class of committed instruction
system.cpu0.commit.op_class_0::SimdFloatMisc            0      0.00%     80.13% # Class of committed instruction
system.cpu0.commit.op_class_0::SimdFloatMult            0      0.00%     80.13% # Class of committed instruction
system.cpu0.commit.op_class_0::SimdFloatMultAcc            0      0.00%     80.13% # Class of committed instruction
system.cpu0.commit.op_class_0::SimdFloatSqrt            0      0.00%     80.13% # Class of committed instruction
system.cpu0.commit.op_class_0::MemRead         444700     18.77%     98.90% # Class of committed instruction
system.cpu0.commit.op_class_0::MemWrite         24562      1.04%     99.94% # Class of committed instruction
system.cpu0.commit.op_class_0::FloatMemRead         1438      0.06%    100.00% # Class of committed instruction
system.cpu0.commit.op_class_0::FloatMemWrite            0      0.00%    100.00% # Class of committed instruction
system.cpu0.commit.op_class_0::IprAccess            0      0.00%    100.00% # Class of committed instruction
system.cpu0.commit.op_class_0::InstPrefetch            0      0.00%    100.00% # Class of committed instruction
system.cpu0.commit.op_class_0::total          2369305                       # Class of committed instruction
system.cpu0.commit.bw_lim_events                36721                       # number cycles where commit BW limit reached
system.cpu0.rob.rob_reads                    36480215                       # The number of ROB reads
system.cpu0.rob.rob_writes                   14036515                       # The number of ROB writes
system.cpu0.timesIdled                            704                       # Number of times that the entire CPU went into an idle state and unscheduled itself
system.cpu0.idleCycles                          95286                       # Total number of cycles that the CPU has spent unscheduled due to idling
system.cpu0.committedInsts                    1186111                       # Number of Instructions Simulated
system.cpu0.committedOps                      2369305                       # Number of Ops (including micro ops) Simulated
system.cpu0.cpi                             25.743533                       # CPI: Cycles Per Instruction
system.cpu0.cpi_total                       25.743533                       # CPI: Total CPI of All Threads
system.cpu0.ipc                              0.038845                       # IPC: Instructions Per Cycle
system.cpu0.ipc_total                        0.038845                       # IPC: Total IPC of All Threads
system.cpu0.int_regfile_reads                 4806257                       # number of integer regfile reads
system.cpu0.int_regfile_writes                4022714                       # number of integer regfile writes
system.cpu0.fp_regfile_reads                    23549                       # number of floating regfile reads
system.cpu0.fp_regfile_writes                   11722                       # number of floating regfile writes
system.cpu0.cc_regfile_reads                  2916960                       # number of cc regfile reads
system.cpu0.cc_regfile_writes                 1288403                       # number of cc regfile writes
system.cpu0.misc_regfile_reads                2469824                       # number of misc regfile reads
system.cpu0.dcache.tags.pwrStateResidencyTicks::UNDEFINED  15267344125                       # Cumulative time (in ticks) in various power states
system.cpu0.dcache.tags.replacements           234249                       # number of replacements
system.cpu0.dcache.tags.tagsinuse                1024                       # Cycle average of tags in use
system.cpu0.dcache.tags.total_refs             329586                       # Total number of references to valid blocks.
system.cpu0.dcache.tags.sampled_refs           234249                       # Sample count of references to valid blocks.
system.cpu0.dcache.tags.avg_refs             1.406990                       # Average number of references to valid blocks.
system.cpu0.dcache.tags.warmup_cycle                0                       # Cycle when the warmup percentage was hit.
system.cpu0.dcache.tags.occ_blocks::cpu0.data         1024                       # Average occupied blocks per requestor
system.cpu0.dcache.tags.occ_percent::cpu0.data            1                       # Average percentage of cache occupancy
system.cpu0.dcache.tags.occ_percent::total            1                       # Average percentage of cache occupancy
system.cpu0.dcache.tags.occ_task_id_blocks::1024         1024                       # Occupied blocks per task id
system.cpu0.dcache.tags.age_task_id_blocks_1024::0          135                       # Occupied blocks per task id
system.cpu0.dcache.tags.age_task_id_blocks_1024::1          776                       # Occupied blocks per task id
system.cpu0.dcache.tags.age_task_id_blocks_1024::2          113                       # Occupied blocks per task id
system.cpu0.dcache.tags.occ_task_id_percent::1024            1                       # Percentage of cache occupancy per task id
system.cpu0.dcache.tags.tag_accesses          3222289                       # Number of tag accesses
system.cpu0.dcache.tags.data_accesses         3222289                       # Number of data accesses
system.cpu0.dcache.pwrStateResidencyTicks::UNDEFINED  15267344125                       # Cumulative time (in ticks) in various power states
system.cpu0.dcache.ReadReq_hits::cpu0.data       303817                       # number of ReadReq hits
system.cpu0.dcache.ReadReq_hits::total         303817                       # number of ReadReq hits
system.cpu0.dcache.WriteReq_hits::cpu0.data        23670                       # number of WriteReq hits
system.cpu0.dcache.WriteReq_hits::total         23670                       # number of WriteReq hits
system.cpu0.dcache.demand_hits::cpu0.data       327487                       # number of demand (read+write) hits
system.cpu0.dcache.demand_hits::total          327487                       # number of demand (read+write) hits
system.cpu0.dcache.overall_hits::cpu0.data       327487                       # number of overall hits
system.cpu0.dcache.overall_hits::total         327487                       # number of overall hits
system.cpu0.dcache.ReadReq_misses::cpu0.data       418631                       # number of ReadReq misses
system.cpu0.dcache.ReadReq_misses::total       418631                       # number of ReadReq misses
system.cpu0.dcache.WriteReq_misses::cpu0.data          892                       # number of WriteReq misses
system.cpu0.dcache.WriteReq_misses::total          892                       # number of WriteReq misses
system.cpu0.dcache.demand_misses::cpu0.data       419523                       # number of demand (read+write) misses
system.cpu0.dcache.demand_misses::total        419523                       # number of demand (read+write) misses
system.cpu0.dcache.overall_misses::cpu0.data       419523                       # number of overall misses
system.cpu0.dcache.overall_misses::total       419523                       # number of overall misses
system.cpu0.dcache.ReadReq_miss_latency::cpu0.data  34912114500                       # number of ReadReq miss cycles
system.cpu0.dcache.ReadReq_miss_latency::total  34912114500                       # number of ReadReq miss cycles
system.cpu0.dcache.WriteReq_miss_latency::cpu0.data     33929499                       # number of WriteReq miss cycles
system.cpu0.dcache.WriteReq_miss_latency::total     33929499                       # number of WriteReq miss cycles
system.cpu0.dcache.demand_miss_latency::cpu0.data  34946043999                       # number of demand (read+write) miss cycles
system.cpu0.dcache.demand_miss_latency::total  34946043999                       # number of demand (read+write) miss cycles
system.cpu0.dcache.overall_miss_latency::cpu0.data  34946043999                       # number of overall miss cycles
system.cpu0.dcache.overall_miss_latency::total  34946043999                       # number of overall miss cycles
system.cpu0.dcache.ReadReq_accesses::cpu0.data       722448                       # number of ReadReq accesses(hits+misses)
system.cpu0.dcache.ReadReq_accesses::total       722448                       # number of ReadReq accesses(hits+misses)
system.cpu0.dcache.WriteReq_accesses::cpu0.data        24562                       # number of WriteReq accesses(hits+misses)
system.cpu0.dcache.WriteReq_accesses::total        24562                       # number of WriteReq accesses(hits+misses)
system.cpu0.dcache.demand_accesses::cpu0.data       747010                       # number of demand (read+write) accesses
system.cpu0.dcache.demand_accesses::total       747010                       # number of demand (read+write) accesses
system.cpu0.dcache.overall_accesses::cpu0.data       747010                       # number of overall (read+write) accesses
system.cpu0.dcache.overall_accesses::total       747010                       # number of overall (read+write) accesses
system.cpu0.dcache.ReadReq_miss_rate::cpu0.data     0.579462                       # miss rate for ReadReq accesses
system.cpu0.dcache.ReadReq_miss_rate::total     0.579462                       # miss rate for ReadReq accesses
system.cpu0.dcache.WriteReq_miss_rate::cpu0.data     0.036316                       # miss rate for WriteReq accesses
system.cpu0.dcache.WriteReq_miss_rate::total     0.036316                       # miss rate for WriteReq accesses
system.cpu0.dcache.demand_miss_rate::cpu0.data     0.561603                       # miss rate for demand accesses
system.cpu0.dcache.demand_miss_rate::total     0.561603                       # miss rate for demand accesses
system.cpu0.dcache.overall_miss_rate::cpu0.data     0.561603                       # miss rate for overall accesses
system.cpu0.dcache.overall_miss_rate::total     0.561603                       # miss rate for overall accesses
system.cpu0.dcache.ReadReq_avg_miss_latency::cpu0.data 83395.913107                       # average ReadReq miss latency
system.cpu0.dcache.ReadReq_avg_miss_latency::total 83395.913107                       # average ReadReq miss latency
system.cpu0.dcache.WriteReq_avg_miss_latency::cpu0.data 38037.554933                       # average WriteReq miss latency
system.cpu0.dcache.WriteReq_avg_miss_latency::total 38037.554933                       # average WriteReq miss latency
system.cpu0.dcache.demand_avg_miss_latency::cpu0.data 83299.471064                       # average overall miss latency
system.cpu0.dcache.demand_avg_miss_latency::total 83299.471064                       # average overall miss latency
system.cpu0.dcache.overall_avg_miss_latency::cpu0.data 83299.471064                       # average overall miss latency
system.cpu0.dcache.overall_avg_miss_latency::total 83299.471064                       # average overall miss latency
[...]
system.l2.WritebackDirty_hits::total             2127                       # number of WritebackDirty hits
system.l2.ReadExReq_hits::cpu0.data               654                       # number of ReadExReq hits
system.l2.ReadExReq_hits::total                   654                       # number of ReadExReq hits
system.l2.ReadSharedReq_hits::cpu0.data         37383                       # number of ReadSharedReq hits
system.l2.ReadSharedReq_hits::total             37383                       # number of ReadSharedReq hits
system.l2.demand_hits::cpu0.data                38037                       # number of demand (read+write) hits
system.l2.demand_hits::total                    38037                       # number of demand (read+write) hits
system.l2.overall_hits::cpu0.data               38037                       # number of overall hits
system.l2.overall_hits::total                   38037                       # number of overall hits
system.l2.ReadExReq_misses::cpu0.data             228                       # number of ReadExReq misses
system.l2.ReadExReq_misses::total                 228                       # number of ReadExReq misses
system.l2.ReadSharedReq_misses::cpu0.data       195983                       # number of ReadSharedReq misses
system.l2.ReadSharedReq_misses::total          195983                       # number of ReadSharedReq misses
system.l2.demand_misses::cpu0.data             196211                       # number of demand (read+write) misses
system.l2.demand_misses::total                 196211                       # number of demand (read+write) misses
system.l2.overall_misses::cpu0.data            196211                       # number of overall misses
system.l2.overall_misses::total                196211                       # number of overall misses
system.l2.ReadExReq_miss_latency::cpu0.data     23374000                       # number of ReadExReq miss cycles
system.l2.ReadExReq_miss_latency::total      23374000                       # number of ReadExReq miss cycles
system.l2.ReadSharedReq_miss_latency::cpu0.data  18581252500                       # number of ReadSharedReq miss cycles
system.l2.ReadSharedReq_miss_latency::total  18581252500                       # number of ReadSharedReq miss cycles
system.l2.demand_miss_latency::cpu0.data  18604626500                       # number of demand (read+write) miss cycles
system.l2.demand_miss_latency::total      18604626500                       # number of demand (read+write) miss cycles
system.l2.overall_miss_latency::cpu0.data  18604626500                       # number of overall miss cycles
system.l2.overall_miss_latency::total     18604626500                       # number of overall miss cycles
system.l2.WritebackDirty_accesses::writebacks         2127                       # number of WritebackDirty accesses(hits+misses)
system.l2.WritebackDirty_accesses::total         2127                       # number of WritebackDirty accesses(hits+misses)
system.l2.ReadExReq_accesses::cpu0.data           882                       # number of ReadExReq accesses(hits+misses)
system.l2.ReadExReq_accesses::total               882                       # number of ReadExReq accesses(hits+misses)
system.l2.ReadSharedReq_accesses::cpu0.data       233366                       # number of ReadSharedReq accesses(hits+misses)
system.l2.ReadSharedReq_accesses::total        233366                       # number of ReadSharedReq accesses(hits+misses)
system.l2.demand_accesses::cpu0.data           234248                       # number of demand (read+write) accesses
system.l2.demand_accesses::total               234248                       # number of demand (read+write) accesses
system.l2.overall_accesses::cpu0.data          234248                       # number of overall (read+write) accesses
system.l2.overall_accesses::total              234248                       # number of overall (read+write) accesses
system.l2.ReadExReq_miss_rate::cpu0.data     0.258503                       # miss rate for ReadExReq accesses
system.l2.ReadExReq_miss_rate::total         0.258503                       # miss rate for ReadExReq accesses
system.l2.ReadSharedReq_miss_rate::cpu0.data     0.839810                       # miss rate for ReadSharedReq accesses
system.l2.ReadSharedReq_miss_rate::total     0.839810                       # miss rate for ReadSharedReq accesses
system.l2.demand_miss_rate::cpu0.data        0.837621                       # miss rate for demand accesses
system.l2.demand_miss_rate::total            0.837621                       # miss rate for demand accesses
system.l2.overall_miss_rate::cpu0.data       0.837621                       # miss rate for overall accesses
system.l2.overall_miss_rate::total           0.837621                       # miss rate for overall accesses
system.l2.ReadExReq_avg_miss_latency::cpu0.data 102517.543860                       # average ReadExReq miss latency
system.l2.ReadExReq_avg_miss_latency::total 102517.543860                       # average ReadExReq miss latency
system.l2.ReadSharedReq_avg_miss_latency::cpu0.data 94810.532036                       # average ReadSharedReq miss latency
system.l2.ReadSharedReq_avg_miss_latency::total 94810.532036                       # average ReadSharedReq miss latency
system.l2.demand_avg_miss_latency::cpu0.data 94819.487694                       # average overall miss latency
system.l2.demand_avg_miss_latency::total 94819.487694                       # average overall miss latency
system.l2.overall_avg_miss_latency::cpu0.data 94819.487694                       # average overall miss latency
system.l2.overall_avg_miss_latency::total 94819.487694                       # average overall miss latency
system.l2.blocked_cycles::no_mshrs                  0                       # number of cycles access was blocked
system.l2.blocked_cycles::no_targets                0                       # number of cycles access was blocked
system.l2.blocked::no_mshrs                         0                       # number of cycles access was blocked
system.l2.blocked::no_targets                       0                       # number of cycles access was blocked
system.l2.avg_blocked_cycles::no_mshrs            nan                       # average number of cycles each access was blocked
system.l2.avg_blocked_cycles::no_targets          nan                       # average number of cycles each access was blocked
system.l2.writebacks::writebacks                  388                       # number of writebacks
system.l2.writebacks::total                       388                       # number of writebacks
system.l2.CleanEvict_mshr_misses::writebacks            2                       # number of CleanEvict MSHR misses
system.l2.CleanEvict_mshr_misses::total             2                       # number of CleanEvict MSHR misses
system.l2.ReadExReq_mshr_misses::cpu0.data          228                       # number of ReadExReq MSHR misses
system.l2.ReadExReq_mshr_misses::total            228                       # number of ReadExReq MSHR misses
system.l2.ReadSharedReq_mshr_misses::cpu0.data       195983                       # number of ReadSharedReq MSHR misses
system.l2.ReadSharedReq_mshr_misses::total       195983                       # number of ReadSharedReq MSHR misses
system.l2.demand_mshr_misses::cpu0.data        196211                       # number of demand (read+write) MSHR misses
system.l2.demand_mshr_misses::total            196211                       # number of demand (read+write) MSHR misses
system.l2.overall_mshr_misses::cpu0.data       196211                       # number of overall MSHR misses
system.l2.overall_mshr_misses::total           196211                       # number of overall MSHR misses
system.l2.ReadExReq_mshr_miss_latency::cpu0.data     21094000                       # number of ReadExReq MSHR miss cycles
system.l2.ReadExReq_mshr_miss_latency::total     21094000                       # number of ReadExReq MSHR miss cycles
system.l2.ReadSharedReq_mshr_miss_latency::cpu0.data  16621412500                       # number of ReadSharedReq MSHR miss cycles
system.l2.ReadSharedReq_mshr_miss_latency::total  16621412500                       # number of ReadSharedReq MSHR miss cycles
system.l2.demand_mshr_miss_latency::cpu0.data  16642506500                       # number of demand (read+write) MSHR miss cycles
system.l2.demand_mshr_miss_latency::total  16642506500                       # number of demand (read+write) MSHR miss cycles
system.l2.overall_mshr_miss_latency::cpu0.data  16642506500                       # number of overall MSHR miss cycles
system.l2.overall_mshr_miss_latency::total  16642506500                       # number of overall MSHR miss cycles
system.l2.CleanEvict_mshr_miss_rate::writebacks          inf                       # mshr miss rate for CleanEvict accesses
system.l2.CleanEvict_mshr_miss_rate::total          inf                       # mshr miss rate for CleanEvict accesses
system.l2.ReadExReq_mshr_miss_rate::cpu0.data     0.258503                       # mshr miss rate for ReadExReq accesses
system.l2.ReadExReq_mshr_miss_rate::total     0.258503                       # mshr miss rate for ReadExReq accesses
system.l2.ReadSharedReq_mshr_miss_rate::cpu0.data     0.839810                       # mshr miss rate for ReadSharedReq accesses
system.l2.ReadSharedReq_mshr_miss_rate::total     0.839810                       # mshr miss rate for ReadSharedReq accesses
system.l2.demand_mshr_miss_rate::cpu0.data     0.837621                       # mshr miss rate for demand accesses
system.l2.demand_mshr_miss_rate::total       0.837621                       # mshr miss rate for demand accesses
system.l2.overall_mshr_miss_rate::cpu0.data     0.837621                       # mshr miss rate for overall accesses
system.l2.overall_mshr_miss_rate::total      0.837621                       # mshr miss rate for overall accesses
system.l2.ReadExReq_avg_mshr_miss_latency::cpu0.data 92517.543860                       # average ReadExReq mshr miss latency
system.l2.ReadExReq_avg_mshr_miss_latency::total 92517.543860                       # average ReadExReq mshr miss latency
system.l2.ReadSharedReq_avg_mshr_miss_latency::cpu0.data 84810.481011                       # average ReadSharedReq mshr miss latency
system.l2.ReadSharedReq_avg_mshr_miss_latency::total 84810.481011                       # average ReadSharedReq mshr miss latency
system.l2.demand_avg_mshr_miss_latency::cpu0.data 84819.436729                       # average overall mshr miss latency
system.l2.demand_avg_mshr_miss_latency::total 84819.436729                       # average overall mshr miss latency
system.l2.overall_avg_mshr_miss_latency::cpu0.data 84819.436729                       # average overall mshr miss latency
system.l2.overall_avg_mshr_miss_latency::total 84819.436729                       # average overall mshr miss latency
system.membus.snoop_filter.tot_requests        392415                       # Total number of requests made to the snoop filter.
system.membus.snoop_filter.hit_single_requests       196212                       # Number of requests hitting in the snoop filter with a single holder of the requested data.
system.membus.snoop_filter.hit_multi_requests            0                       # Number of requests hitting in the snoop filter with multiple (>1) holders of the requested data.
system.membus.snoop_filter.tot_snoops               0                       # Total number of snoops made to the snoop filter.
system.membus.snoop_filter.hit_single_snoops            0                       # Number of snoops hitting in the snoop filter with a single holder of the requested data.
system.membus.snoop_filter.hit_multi_snoops            0                       # Number of snoops hitting in the snoop filter with multiple (>1) holders of the requested data.
system.membus.pwrStateResidencyTicks::UNDEFINED  15267344125                       # Cumulative time (in ticks) in various power states
system.membus.trans_dist::ReadResp             195984                       # Transaction distribution
system.membus.trans_dist::WritebackDirty          388                       # Transaction distribution
system.membus.trans_dist::CleanEvict           195816                       # Transaction distribution
system.membus.trans_dist::ReadExReq               228                       # Transaction distribution
system.membus.trans_dist::ReadExResp              228                       # Transaction distribution
system.membus.trans_dist::ReadSharedReq        195983                       # Transaction distribution
system.membus.pkt_count_system.l2.mem_side::system.mem_ctrls.port       588627                       # Packet count per connected master and slave (bytes)
system.membus.pkt_count_system.l2.mem_side::total       588627                       # Packet count per connected master and slave (bytes)
system.membus.pkt_count::total                 588627                       # Packet count per connected master and slave (bytes)
system.membus.pkt_size_system.l2.mem_side::system.mem_ctrls.port     12582400                       # Cumulative packet size per connected master and slave (bytes)
system.membus.pkt_size_system.l2.mem_side::total     12582400                       # Cumulative packet size per connected master and slave (bytes)
system.membus.pkt_size::total                12582400                       # Cumulative packet size per connected master and slave (bytes)
system.membus.snoops                                0                       # Total snoops (count)
system.membus.snoopTraffic                          0                       # Total snoop traffic (bytes)
system.membus.snoop_fanout::samples            196211                       # Request fanout histogram
system.membus.snoop_fanout::mean                    0                       # Request fanout histogram
system.membus.snoop_fanout::stdev                   0                       # Request fanout histogram
system.membus.snoop_fanout::underflows              0      0.00%      0.00% # Request fanout histogram
system.membus.snoop_fanout::0                  196211    100.00%    100.00% # Request fanout histogram
system.membus.snoop_fanout::1                       0      0.00%    100.00% # Request fanout histogram
system.membus.snoop_fanout::overflows               0      0.00%    100.00% # Request fanout histogram
system.membus.snoop_fanout::min_value               0                       # Request fanout histogram
system.membus.snoop_fanout::max_value               0                       # Request fanout histogram
system.membus.snoop_fanout::total              196211                       # Request fanout histogram
system.membus.reqLayer4.occupancy           462380000                       # Layer occupancy (ticks)
system.membus.reqLayer4.utilization               3.0                       # Layer utilization (%)
system.membus.respLayer1.occupancy         1060439250                       # Layer occupancy (ticks)
system.membus.respLayer1.utilization              6.9                       # Layer utilization (%)
system.tol2bus.snoop_filter.tot_requests       468497                       # Total number of requests made to the snoop filter.
system.tol2bus.snoop_filter.hit_single_requests       234249                       # Number of requests hitting in the snoop filter with a single holder of the requested data.
system.tol2bus.snoop_filter.hit_multi_requests          508                       # Number of requests hitting in the snoop filter with multiple (>1) holders of the requested data.
system.tol2bus.snoop_filter.tot_snoops             24                       # Total number of snoops made to the snoop filter.
system.tol2bus.snoop_filter.hit_single_snoops           22                       # Number of snoops hitting in the snoop filter with a single holder of the requested data.
system.tol2bus.snoop_filter.hit_multi_snoops            2                       # Number of snoops hitting in the snoop filter with multiple (>1) holders of the requested data.
system.tol2bus.pwrStateResidencyTicks::UNDEFINED  15267344125                       # Cumulative time (in ticks) in various power states
system.tol2bus.trans_dist::ReadResp            233367                       # Transaction distribution
system.tol2bus.trans_dist::WritebackDirty         2515                       # Transaction distribution
system.tol2bus.trans_dist::CleanEvict          427960                       # Transaction distribution
system.tol2bus.trans_dist::ReadExReq              882                       # Transaction distribution
system.tol2bus.trans_dist::ReadExResp             882                       # Transaction distribution
system.tol2bus.trans_dist::ReadSharedReq       233366                       # Transaction distribution
system.tol2bus.pkt_count_system.cpu0.dcache.mem_side::system.l2.cpu_side       702746                       # Packet count per connected master and slave (bytes)
system.tol2bus.pkt_count::total                702746                       # Packet count per connected master and slave (bytes)
system.tol2bus.pkt_size_system.cpu0.dcache.mem_side::system.l2.cpu_side     15128064                       # Cumulative packet size per connected master and slave (bytes)
system.tol2bus.pkt_size::total               15128064                       # Cumulative packet size per connected master and slave (bytes)
system.tol2bus.snoops                          196226                       # Total snoops (count)
system.tol2bus.snoopTraffic                     24832                       # Total snoop traffic (bytes)
system.tol2bus.snoop_fanout::samples           430474                       # Request fanout histogram
system.tol2bus.snoop_fanout::mean            0.001240                       # Request fanout histogram
system.tol2bus.snoop_fanout::stdev           0.035331                       # Request fanout histogram
system.tol2bus.snoop_fanout::underflows             0      0.00%      0.00% # Request fanout histogram
system.tol2bus.snoop_fanout::0                 429942     99.88%     99.88% # Request fanout histogram
system.tol2bus.snoop_fanout::1                    530      0.12%    100.00% # Request fanout histogram
system.tol2bus.snoop_fanout::2                      2      0.00%    100.00% # Request fanout histogram
system.tol2bus.snoop_fanout::3                      0      0.00%    100.00% # Request fanout histogram
system.tol2bus.snoop_fanout::4                      0      0.00%    100.00% # Request fanout histogram
system.tol2bus.snoop_fanout::5                      0      0.00%    100.00% # Request fanout histogram
system.tol2bus.snoop_fanout::6                      0      0.00%    100.00% # Request fanout histogram
system.tol2bus.snoop_fanout::7                      0      0.00%    100.00% # Request fanout histogram
system.tol2bus.snoop_fanout::8                      0      0.00%    100.00% # Request fanout histogram
system.tol2bus.snoop_fanout::overflows              0      0.00%    100.00% # Request fanout histogram
system.tol2bus.snoop_fanout::min_value              0                       # Request fanout histogram
system.tol2bus.snoop_fanout::max_value              2                       # Request fanout histogram
system.tol2bus.snoop_fanout::total             430474                       # Request fanout histogram
system.tol2bus.reqLayer0.occupancy          236375500                       # Layer occupancy (ticks)
system.tol2bus.reqLayer0.utilization              1.5                       # Layer utilization (%)
system.tol2bus.respLayer1.occupancy         351373500                       # Layer occupancy (ticks)
system.tol2bus.respLayer1.utilization             2.3                       # Layer utilization (%)

---------- End Simulation Statistics   ----------
