
---------- Begin Simulation Statistics ----------
sim_seconds                                  0.015267                       # Number of seconds simulated
sim_ticks                                 15267344125                       # Number of ticks simulated
final_tick                               5664184670375                       # Number of ticks from beginning of simulation (restored from checkpoints and never reset)
sim_freq                                 1000000000000                       # Frequency of simulated ticks
host_inst_rate                               99188719                       # Simulator instruction rate (inst/s)
host_op_rate                                184211900                       # Simulator op (including micro ops) rate (op/s)
host_tick_rate                              263540371                       # Simulator tick rate (ticks/s)
host_mem_usage                                1248940                       # Number of bytes of host memory used
host_seconds                                    57.93                       # Real time elapsed on the host
sim_insts                                  5746168611                       # Number of instructions simulated
sim_ops                                   10671707351                       # Number of ops (including micro ops) simulated
system.voltage_domain.voltage                       1                       # Voltage in Volts
system.clk_domain.clock                          1000                       # Clock period in ticks
system.mem_ctrls.pwrStateResidencyTicks::UNDEFINED  15267344125                       # Cumulative time (in ticks) in various power states
system.mem_ctrls.bytes_read::cpu0.inst            128                       # Number of bytes read from this memory
system.mem_ctrls.bytes_read::cpu0.data       12340032                       # Number of bytes read from this memory
system.mem_ctrls.bytes_read::total           12340160                       # Number of bytes read from this memory
system.mem_ctrls.bytes_inst_read::cpu0.inst          128                       # Number of instructions bytes read from this memory
system.mem_ctrls.bytes_inst_read::total           128                       # Number of instructions bytes read from this memory
system.mem_ctrls.bytes_written::writebacks        28096                       # Number of bytes written to this memory
system.mem_ctrls.bytes_written::total           28096                       # Number of bytes written to this memory
system.mem_ctrls.num_reads::cpu0.inst               2                       # Number of read requests responded to by this memory
system.mem_ctrls.num_reads::cpu0.data          192813                       # Number of read requests responded to by this memory
system.mem_ctrls.num_reads::total              192815                       # Number of read requests responded to by this memory
system.mem_ctrls.num_writes::writebacks           439                       # Number of write requests responded to by this memory
system.mem_ctrls.num_writes::total                439                       # Number of write requests responded to by this memory
system.mem_ctrls.bw_read::cpu0.inst              8384                       # Total read bandwidth from this memory (bytes/s)
system.mem_ctrls.bw_read::cpu0.data         808263173                       # Total read bandwidth from this memory (bytes/s)
system.mem_ctrls.bw_read::total             808271557                       # Total read bandwidth from this memory (bytes/s)
system.mem_ctrls.bw_inst_read::cpu0.inst         8384                       # Instruction read bandwidth from this memory (bytes/s)
system.mem_ctrls.bw_inst_read::total             8384                       # Instruction read bandwidth from this memory (bytes/s)
system.mem_ctrls.bw_write::writebacks         1840268                       # Write bandwidth from this memory (bytes/s)
system.mem_ctrls.bw_write::total              1840268                       # Write bandwidth from this memory (bytes/s)
system.mem_ctrls.bw_total::writebacks         1840268                       # Total bandwidth to/from this memory (bytes/s)
system.mem_ctrls.bw_total::cpu0.inst             8384                       # Total bandwidth to/from this memory (bytes/s)
system.mem_ctrls.bw_total::cpu0.data        808263173                       # Total bandwidth to/from this memory (bytes/s)
system.mem_ctrls.bw_total::total            810111824                       # Total bandwidth to/from this memory (bytes/s)
system.mem_ctrls.readReqs                      192815                       # Number of read requests accepted
system.mem_ctrls.writeReqs                        439                       # Number of write requests accepted
system.mem_ctrls.readBursts                    192815                       # Number of DRAM read bursts, including those serviced by the write queue
system.mem_ctrls.writeBursts                      439                       # Number of DRAM write bursts, including those merged in the write queue
system.mem_ctrls.bytesReadDRAM               12336512                       # Total number of bytes read from DRAM
system.mem_ctrls.bytesReadWrQ                    3648                       # Total number of bytes read from write queue
system.mem_ctrls.bytesWritten                   27648                       # Total number of bytes written to DRAM
system.mem_ctrls.bytesReadSys                12340160                       # Total read bytes from the system interface side
system.mem_ctrls.bytesWrittenSys                28096                       # Total written bytes from the system interface side
system.mem_ctrls.servicedByWrQ                     57                       # Number of DRAM read bursts serviced by the write queue
system.mem_ctrls.mergedWrBursts                     5                       # Number of DRAM write bursts merged with an existing one
system.mem_ctrls.neitherReadNorWriteReqs            0                       # Number of requests that are neither read nor write
system.mem_ctrls.perBankRdBursts::0             11979                       # Per bank write bursts
system.mem_ctrls.perBankRdBursts::1             11691                       # Per bank write bursts
system.mem_ctrls.perBankRdBursts::2             11670                       # Per bank write bursts
system.mem_ctrls.perBankRdBursts::3             12256                       # Per bank write bursts
system.mem_ctrls.perBankRdBursts::4             12510                       # Per bank write bursts
system.mem_ctrls.perBankRdBursts::5             12146                       # Per bank write bursts
system.mem_ctrls.perBankRdBursts::6             12325                       # Per bank write bursts
system.mem_ctrls.perBankRdBursts::7             12099                       # Per bank write bursts
system.mem_ctrls.perBankRdBursts::8             12002                       # Per bank write bursts
system.mem_ctrls.perBankRdBursts::9             11953                       # Per bank write bursts
system.mem_ctrls.perBankRdBursts::10            12029                       # Per bank write bursts
system.mem_ctrls.perBankRdBursts::11            12259                       # Per bank write bursts
system.mem_ctrls.perBankRdBursts::12            12008                       # Per bank write bursts
system.mem_ctrls.perBankRdBursts::13            12006                       # Per bank write bursts
system.mem_ctrls.perBankRdBursts::14            11952                       # Per bank write bursts
system.mem_ctrls.perBankRdBursts::15            11873                       # Per bank write bursts
system.mem_ctrls.perBankWrBursts::0                26                       # Per bank write bursts
system.mem_ctrls.perBankWrBursts::1                 0                       # Per bank write bursts
system.mem_ctrls.perBankWrBursts::2                 0                       # Per bank write bursts
system.mem_ctrls.perBankWrBursts::3               143                       # Per bank write bursts
system.mem_ctrls.perBankWrBursts::4                13                       # Per bank write bursts
system.mem_ctrls.perBankWrBursts::5                 0                       # Per bank write bursts
system.mem_ctrls.perBankWrBursts::6                 0                       # Per bank write bursts
system.mem_ctrls.perBankWrBursts::7                 0                       # Per bank write bursts
system.mem_ctrls.perBankWrBursts::8                13                       # Per bank write bursts
system.mem_ctrls.perBankWrBursts::9                 0                       # Per bank write bursts
system.mem_ctrls.perBankWrBursts::10                0                       # Per bank write bursts
system.mem_ctrls.perBankWrBursts::11               81                       # Per bank write bursts
system.mem_ctrls.perBankWrBursts::12              131                       # Per bank write bursts
system.mem_ctrls.perBankWrBursts::13               25                       # Per bank write bursts
system.mem_ctrls.perBankWrBursts::14                0                       # Per bank write bursts
system.mem_ctrls.perBankWrBursts::15                0                       # Per bank write bursts
system.mem_ctrls.numRdRetry                         0                       # Number of times read queue was full causing retry
system.mem_ctrls.numWrRetry                         0                       # Number of times write queue was full causing retry
system.mem_ctrls.totGap                   15267336500                       # Total gap between requests
system.mem_ctrls.readPktSize::0                     0                       # Read request sizes (log2)
system.mem_ctrls.readPktSize::1                     0                       # Read request sizes (log2)
system.mem_ctrls.readPktSize::2                     0                       # Read request sizes (log2)
system.mem_ctrls.readPktSize::3                     0                       # Read request sizes (log2)
system.mem_ctrls.readPktSize::4                     0                       # Read request sizes (log2)
system.mem_ctrls.readPktSize::5                     0                       # Read request sizes (log2)
system.mem_ctrls.readPktSize::6                192815                       # Read request sizes (log2)
system.mem_ctrls.writePktSize::0                    0                       # Write request sizes (log2)
system.mem_ctrls.writePktSize::1                    0                       # Write request sizes (log2)
system.mem_ctrls.writePktSize::2                    0                       # Write request sizes (log2)
system.mem_ctrls.writePktSize::3                    0                       # Write request sizes (log2)
system.mem_ctrls.writePktSize::4                    0                       # Write request sizes (log2)
system.mem_ctrls.writePktSize::5                    0                       # Write request sizes (log2)
system.mem_ctrls.writePktSize::6                  439                       # Write request sizes (log2)
system.mem_ctrls.rdQLenPdf::0                  147817                       # What read queue length does an incoming req see
system.mem_ctrls.rdQLenPdf::1                   42615                       # What read queue length does an incoming req see
system.mem_ctrls.rdQLenPdf::2                    2308                       # What read queue length does an incoming req see
system.mem_ctrls.rdQLenPdf::3                      17                       # What read queue length does an incoming req see
system.mem_ctrls.rdQLenPdf::4                       1                       # What read queue length does an incoming req see
system.mem_ctrls.rdQLenPdf::5                       0                       # What read queue length does an incoming req see
system.mem_ctrls.rdQLenPdf::6                       0                       # What read queue length does an incoming req see
system.mem_ctrls.rdQLenPdf::7                       0                       # What read queue length does an incoming req see
system.mem_ctrls.rdQLenPdf::8                       0                       # What read queue length does an incoming req see
system.mem_ctrls.rdQLenPdf::9                       0                       # What read queue length does an incoming req see
system.mem_ctrls.rdQLenPdf::10                      0                       # What read queue length does an incoming req see
system.mem_ctrls.rdQLenPdf::11                      0                       # What read queue length does an incoming req see
system.mem_ctrls.rdQLenPdf::12                      0                       # What read queue length does an incoming req see
system.mem_ctrls.rdQLenPdf::13                      0                       # What read queue length does an incoming req see
system.mem_ctrls.rdQLenPdf::14                      0                       # What read queue length does an incoming req see
system.mem_ctrls.rdQLenPdf::15                      0                       # What read queue length does an incoming req see
system.mem_ctrls.rdQLenPdf::16                      0                       # What read queue length does an incoming req see
system.mem_ctrls.rdQLenPdf::17                      0                       # What read queue length does an incoming req see
system.mem_ctrls.rdQLenPdf::18                      0                       # What read queue length does an incoming req see
system.mem_ctrls.rdQLenPdf::19                      0                       # What read queue length does an incoming req see
system.mem_ctrls.rdQLenPdf::20                      0                       # What read queue length does an incoming req see
system.mem_ctrls.rdQLenPdf::21                      0                       # What read queue length does an incoming req see
system.mem_ctrls.rdQLenPdf::22                      0                       # What read queue length does an incoming req see
system.mem_ctrls.rdQLenPdf::23                      0                       # What read queue length does an incoming req see
system.mem_ctrls.rdQLenPdf::24                      0                       # What read queue length does an incoming req see
system.mem_ctrls.rdQLenPdf::25                      0                       # What read queue length does an incoming req see
system.mem_ctrls.rdQLenPdf::26                      0                       # What read queue length does an incoming req see
system.mem_ctrls.rdQLenPdf::27                      0                       # What read queue length does an incoming req see
system.mem_ctrls.rdQLenPdf::28                      0                       # What read queue length does an incoming req see
system.mem_ctrls.rdQLenPdf::29                      0                       # What read queue length does an incoming req see
system.mem_ctrls.rdQLenPdf::30                      0                       # What read queue length does an incoming req see
system.mem_ctrls.rdQLenPdf::31                      0                       # What read queue length does an incoming req see
system.mem_ctrls.wrQLenPdf::0                       0                       # What write queue length does an incoming req see
system.mem_ctrls.wrQLenPdf::1                       0                       # What write queue length does an incoming req see
system.mem_ctrls.wrQLenPdf::2                       0                       # What write queue length does an incoming req see
system.mem_ctrls.wrQLenPdf::3                       0                       # What write queue length does an incoming req see
system.mem_ctrls.wrQLenPdf::4                       0                       # What write queue length does an incoming req see
system.mem_ctrls.wrQLenPdf::5                       0                       # What write queue length does an incoming req see
system.mem_ctrls.wrQLenPdf::6                       0                       # What write queue length does an incoming req see
system.mem_ctrls.wrQLenPdf::7                       0                       # What write queue length does an incoming req see
system.mem_ctrls.wrQLenPdf::8                       0                       # What write queue length does an incoming req see
system.mem_ctrls.wrQLenPdf::9                       0                       # What write queue length does an incoming req see
system.mem_ctrls.wrQLenPdf::10                      0                       # What write queue length does an incoming req see
system.mem_ctrls.wrQLenPdf::11                      0                       # What write queue length does an incoming req see
system.mem_ctrls.wrQLenPdf::12                      0                       # What write queue length does an incoming req see
system.mem_ctrls.wrQLenPdf::13                      0                       # What write queue length does an incoming req see
system.mem_ctrls.wrQLenPdf::14                      0                       # What write queue length does an incoming req see
system.mem_ctrls.wrQLenPdf::15                      0                       # What write queue length does an incoming req see
system.mem_ctrls.wrQLenPdf::16                      0                       # What write queue length does an incoming req see
system.mem_ctrls.wrQLenPdf::17                     27                       # What write queue length does an incoming req see
system.mem_ctrls.wrQLenPdf::18                     27                       # What write queue length does an incoming req see
system.mem_ctrls.wrQLenPdf::19                     28                       # What write queue length does an incoming req see
system.mem_ctrls.wrQLenPdf::20                     28                       # What write queue length does an incoming req see
system.mem_ctrls.wrQLenPdf::21                     27                       # What write queue length does an incoming req see
system.mem_ctrls.wrQLenPdf::22                     27                       # What write queue length does an incoming req see
system.mem_ctrls.wrQLenPdf::23                     27                       # What write queue length does an incoming req see
system.mem_ctrls.wrQLenPdf::24                     27                       # What write queue length does an incoming req see
system.mem_ctrls.wrQLenPdf::25                     27                       # What write queue length does an incoming req see
system.mem_ctrls.wrQLenPdf::26                     27                       # What write queue length does an incoming req see
system.mem_ctrls.wrQLenPdf::27                     27                       # What write queue length does an incoming req see
system.mem_ctrls.wrQLenPdf::28                     27                       # What write queue length does an incoming req see
system.mem_ctrls.wrQLenPdf::29                     27                       # What write queue length does an incoming req see
system.mem_ctrls.wrQLenPdf::30                     27                       # What write queue length does an incoming req see
system.mem_ctrls.wrQLenPdf::31                     27                       # What write queue length does an incoming req see
system.mem_ctrls.wrQLenPdf::32                     27                       # What write queue length does an incoming req see
system.mem_ctrls.wrQLenPdf::33                      0                       # What write queue length does an incoming req see
system.mem_ctrls.wrQLenPdf::34                      0                       # What write queue length does an incoming req see
system.mem_ctrls.wrQLenPdf::35                      0                       # What write queue length does an incoming req see
system.mem_ctrls.wrQLenPdf::36                      0                       # What write queue length does an incoming req see
system.mem_ctrls.wrQLenPdf::37                      0                       # What write queue length does an incoming req see
system.mem_ctrls.wrQLenPdf::38                      0                       # What write queue length does an incoming req see
system.mem_ctrls.wrQLenPdf::39                      0                       # What write queue length does an incoming req see
system.mem_ctrls.wrQLenPdf::40                      0                       # What write queue length does an incoming req see
system.mem_ctrls.wrQLenPdf::41                      0                       # What write queue length does an incoming req see
system.mem_ctrls.wrQLenPdf::42                      0                       # What write queue length does an incoming req see
system.mem_ctrls.wrQLenPdf::43                      0                       # What write queue length does an incoming req see
system.mem_ctrls.wrQLenPdf::44                      0                       # What write queue length does an incoming req see
system.mem_ctrls.wrQLenPdf::45                      0                       # What write queue length does an incoming req see
system.mem_ctrls.wrQLenPdf::46                      0                       # What write queue length does an incoming req see
system.mem_ctrls.wrQLenPdf::47                      0                       # What write queue length does an incoming req see
system.mem_ctrls.wrQLenPdf::48                      0                       # What write queue length does an incoming req see
system.mem_ctrls.wrQLenPdf::49                      0                       # What write queue length does an incoming req see
system.mem_ctrls.wrQLenPdf::50                      0                       # What write queue length does an incoming req see
system.mem_ctrls.wrQLenPdf::51                      0                       # What write queue length does an incoming req see
system.mem_ctrls.wrQLenPdf::52                      0                       # What write queue length does an incoming req see
system.mem_ctrls.wrQLenPdf::53                      0                       # What write queue length does an incoming req see
system.mem_ctrls.wrQLenPdf::54                      0                       # What write queue length does an incoming req see
system.mem_ctrls.wrQLenPdf::55                      0                       # What write queue length does an incoming req see
system.mem_ctrls.wrQLenPdf::56                      0                       # What write queue length does an incoming req see
system.mem_ctrls.wrQLenPdf::57                      0                       # What write queue length does an incoming req see
system.mem_ctrls.wrQLenPdf::58                      0                       # What write queue length does an incoming req see
system.mem_ctrls.wrQLenPdf::59                      0                       # What write queue length does an incoming req see
system.mem_ctrls.wrQLenPdf::60                      0                       # What write queue length does an incoming req see
system.mem_ctrls.wrQLenPdf::61                      0                       # What write queue length does an incoming req see
system.mem_ctrls.wrQLenPdf::62                      0                       # What write queue length does an incoming req see
system.mem_ctrls.wrQLenPdf::63                      0                       # What write queue length does an incoming req see
system.mem_ctrls.bytesPerActivate::samples        96431                       # Bytes accessed per row activation
system.mem_ctrls.bytesPerActivate::mean    128.215035                       # Bytes accessed per row activation
system.mem_ctrls.bytesPerActivate::gmean   110.244944                       # Bytes accessed per row activation
system.mem_ctrls.bytesPerActivate::stdev    76.779454                       # Bytes accessed per row activation
system.mem_ctrls.bytesPerActivate::0-127        41632     43.17%     43.17% # Bytes accessed per row activation
system.mem_ctrls.bytesPerActivate::128-255        44059     45.69%     88.86% # Bytes accessed per row activation
system.mem_ctrls.bytesPerActivate::256-383         9303      9.65%     98.51% # Bytes accessed per row activation
system.mem_ctrls.bytesPerActivate::384-511         1236      1.28%     99.79% # Bytes accessed per row activation
system.mem_ctrls.bytesPerActivate::512-639          167      0.17%     99.96% # Bytes accessed per row activation
system.mem_ctrls.bytesPerActivate::640-767           19      0.02%     99.98% # Bytes accessed per row activation
system.mem_ctrls.bytesPerActivate::768-895            3      0.00%     99.99% # Bytes accessed per row activation
system.mem_ctrls.bytesPerActivate::896-1023            2      0.00%     99.99% # Bytes accessed per row activation
system.mem_ctrls.bytesPerActivate::1024-1151           10      0.01%    100.00% # Bytes accessed per row activation
system.mem_ctrls.bytesPerActivate::total        96431                       # Bytes accessed per row activation
system.mem_ctrls.rdPerTurnAround::samples           27                       # Reads before turning the bus around for writes
system.mem_ctrls.rdPerTurnAround::mean    7154.555556                       # Reads before turning the bus around for writes
system.mem_ctrls.rdPerTurnAround::gmean   7019.431485                       # Reads before turning the bus around for writes
system.mem_ctrls.rdPerTurnAround::stdev   1397.129209                       # Reads before turning the bus around for writes
system.mem_ctrls.rdPerTurnAround::4096-4607            1      3.70%      3.70% # Reads before turning the bus around for writes
system.mem_ctrls.rdPerTurnAround::4608-5119            2      7.41%     11.11% # Reads before turning the bus around for writes
system.mem_ctrls.rdPerTurnAround::5632-6143            2      7.41%     18.52% # Reads before turning the bus around for writes
system.mem_ctrls.rdPerTurnAround::6144-6655            5     18.52%     37.04% # Reads before turning the bus around for writes
system.mem_ctrls.rdPerTurnAround::6656-7167            5     18.52%     55.56% # Reads before turning the bus around for writes
system.mem_ctrls.rdPerTurnAround::7168-7679            2      7.41%     62.96% # Reads before turning the bus around for writes
system.mem_ctrls.rdPerTurnAround::7680-8191            3     11.11%     74.07% # Reads before turning the bus around for writes
system.mem_ctrls.rdPerTurnAround::8192-8703            3     11.11%     85.19% # Reads before turning the bus around for writes
system.mem_ctrls.rdPerTurnAround::8704-9215            3     11.11%     96.30% # Reads before turning the bus around for writes
system.mem_ctrls.rdPerTurnAround::10240-10751            1      3.70%    100.00% # Reads before turning the bus around for writes
system.mem_ctrls.rdPerTurnAround::total            27                       # Reads before turning the bus around for writes
system.mem_ctrls.wrPerTurnAround::samples           27                       # Writes before turning the bus around for reads
system.mem_ctrls.wrPerTurnAround::mean             16                       # Writes before turning the bus around for reads
system.mem_ctrls.wrPerTurnAround::gmean     16.000000                       # Writes before turning the bus around for reads
system.mem_ctrls.wrPerTurnAround::16               27    100.00%    100.00% # Writes before turning the bus around for reads
system.mem_ctrls.wrPerTurnAround::total            27                       # Writes before turning the bus around for reads
system.mem_ctrls.totQLat                   4739499750                       # Total ticks spent queuing
system.mem_ctrls.totMemAccLat              8353712250                       # Total ticks spent from burst creation until serviced by the DRAM
system.mem_ctrls.totBusLat                  963790000                       # Total ticks spent in databus transfers
system.mem_ctrls.avgQLat                     24587.82                       # Average queueing delay per DRAM burst
system.mem_ctrls.avgBusLat                    5000.00                       # Average bus latency per DRAM burst
system.mem_ctrls.avgMemAccLat                43337.82                       # Average memory access latency per DRAM burst
system.mem_ctrls.avgRdBW                       808.03                       # Average DRAM read bandwidth in MiByte/s
system.mem_ctrls.avgWrBW                         1.81                       # Average achieved write bandwidth in MiByte/s
system.mem_ctrls.avgRdBWSys                    808.27                       # Average system read bandwidth in MiByte/s
system.mem_ctrls.avgWrBWSys                      1.84                       # Average system write bandwidth in MiByte/s
system.mem_ctrls.peakBW                      12800.00                       # Theoretical peak bandwidth in MiByte/s
system.mem_ctrls.busUtil                         6.33                       # Data bus utilization in percentage
system.mem_ctrls.busUtilRead                     6.31                       # Data bus utilization in percentage for reads
system.mem_ctrls.busUtilWrite                    0.01                       # Data bus utilization in percentage for writes
system.mem_ctrls.avgRdQLen                       1.30                       # Average read queue length when enqueuing
system.mem_ctrls.avgWrQLen                      25.47                       # Average write queue length when enqueuing
system.mem_ctrls.readRowHits                    96395                       # Number of row buffer hits during reads
system.mem_ctrls.writeRowHits                     366                       # Number of row buffer hits during writes
system.mem_ctrls.readRowHitRate                 50.01                       # Row buffer hit rate for reads
system.mem_ctrls.writeRowHitRate                84.33                       # Row buffer hit rate for writes
system.mem_ctrls.avgGap                      79001.40                       # Average gap between requests
system.mem_ctrls.pageHitRate                    50.09                       # Row buffer hit rate, read and write combined
system.mem_ctrls_0.actEnergy                344712060                       # Energy for activate commands per rank (pJ)
system.mem_ctrls_0.preEnergy                183222600                       # Energy for precharge commands per rank (pJ)
system.mem_ctrls_0.readEnergy               690266640                       # Energy for read commands per rank (pJ)
system.mem_ctrls_0.writeEnergy                 950040                       # Energy for write commands per rank (pJ)
system.mem_ctrls_0.refreshEnergy         1205923680.000000                       # Energy for refresh commands per rank (pJ)
system.mem_ctrls_0.actBackEnergy           1626684810                       # Energy for active background per rank (pJ)
system.mem_ctrls_0.preBackEnergy             24565920                       # Energy for precharge background per rank (pJ)
system.mem_ctrls_0.actPowerDownEnergy      5169816210                       # Energy for active power-down per rank (pJ)
system.mem_ctrls_0.prePowerDownEnergy       114393600                       # Energy for precharge power-down per rank (pJ)
system.mem_ctrls_0.selfRefreshEnergy     759540.000000                       # Energy for self refresh per rank (pJ)
system.mem_ctrls_0.totalEnergy             9361295100                       # Total energy per rank (pJ)
system.mem_ctrls_0.averagePower            613.158060                       # Core power per rank (mW)
system.mem_ctrls_0.totalIdleTime          11635023500                       # Total Idle time Per DRAM Rank
system.mem_ctrls_0.memoryStateTime::IDLE      9786500                       # Time in different power states
system.mem_ctrls_0.memoryStateTime::REF     510126000                       # Time in different power states
system.mem_ctrls_0.memoryStateTime::SREF       863500                       # Time in different power states
system.mem_ctrls_0.memoryStateTime::PRE_PDN    297608250                       # Time in different power states
system.mem_ctrls_0.memoryStateTime::ACT    3112398500                       # Time in different power states
system.mem_ctrls_0.memoryStateTime::ACT_PDN  11336561375                       # Time in different power states
system.mem_ctrls_1.actEnergy                343791000                       # Energy for activate commands per rank (pJ)
system.mem_ctrls_1.preEnergy                182733045                       # Energy for precharge commands per rank (pJ)
system.mem_ctrls_1.readEnergy               686025480                       # Energy for read commands per rank (pJ)
system.mem_ctrls_1.writeEnergy                1305000                       # Energy for write commands per rank (pJ)
system.mem_ctrls_1.refreshEnergy         1205923680.000000                       # Energy for refresh commands per rank (pJ)
system.mem_ctrls_1.actBackEnergy           1617945000                       # Energy for active background per rank (pJ)
system.mem_ctrls_1.preBackEnergy             24519360                       # Energy for precharge background per rank (pJ)
system.mem_ctrls_1.actPowerDownEnergy      5222063550                       # Energy for active power-down per rank (pJ)
system.mem_ctrls_1.prePowerDownEnergy        77695680                       # Energy for precharge power-down per rank (pJ)
system.mem_ctrls_1.selfRefreshEnergy     826140.000000                       # Energy for self refresh per rank (pJ)
system.mem_ctrls_1.totalEnergy             9362827935                       # Total energy per rank (pJ)
system.mem_ctrls_1.averagePower            613.258459                       # Core power per rank (mW)
system.mem_ctrls_1.totalIdleTime          11655178750                       # Total Idle time Per DRAM Rank
system.mem_ctrls_1.memoryStateTime::IDLE      9708000                       # Time in different power states
system.mem_ctrls_1.memoryStateTime::REF     510126000                       # Time in different power states
system.mem_ctrls_1.memoryStateTime::SREF      1140750                       # Time in different power states
system.mem_ctrls_1.memoryStateTime::PRE_PDN    202242500                       # Time in different power states
system.mem_ctrls_1.memoryStateTime::ACT    3091774000                       # Time in different power states
system.mem_ctrls_1.memoryStateTime::ACT_PDN  11452352875                       # Time in different power states
system.pwrStateResidencyTicks::UNDEFINED  15267344125                       # Cumulative time (in ticks) in various power states
system.cpu0.branchPred.lookups                1223065                       # Number of BP lookups
system.cpu0.branchPred.condPredicted          1223065                       # Number of conditional branches predicted
system.cpu0.branchPred.condIncorrect            47768                       # Number of conditional branches incorrect
system.cpu0.branchPred.BTBLookups              974551                       # Number of BTB lookups
system.cpu0.branchPred.BTBHits                      0                       # Number of BTB hits
system.cpu0.branchPred.BTBCorrect                   0                       # Number of correct BTB predictions (this stat may not work properly.
system.cpu0.branchPred.BTBHitPct             0.000000                       # BTB Hit Percentage
system.cpu0.branchPred.usedRAS                  34034                       # Number of times the RAS was used to get a target.
system.cpu0.branchPred.RASInCorrect              4591                       # Number of incorrect RAS predictions.
system.cpu0.branchPred.indirectLookups         974551                       # Number of indirect predictor lookups.
system.cpu0.branchPred.indirectHits            527503                       # Number of indirect target hits.
system.cpu0.branchPred.indirectMisses          447048                       # Number of indirect misses.
system.cpu0.branchPredindirectMispredicted        17544                       # Number of mispredicted indirect branches.
system.cpu_voltage_domain.voltage                   1                       # Voltage in Volts
system.cpu_clk_domain.clock                       500                       # Clock period in ticks
system.cpu0.dtb.walker.pwrStateResidencyTicks::UNDEFINED  15267344125                       # Cumulative time (in ticks) in various power states
system.cpu0.dtb.rdAccesses                     621774                       # TLB accesses on read requests
system.cpu0.dtb.wrAccesses                      45764                       # TLB accesses on write requests
system.cpu0.dtb.rdMisses                       142937                       # TLB misses on read requests
system.cpu0.dtb.wrMisses                          807                       # TLB misses on write requests
system.cpu0.apic_clk_domain.clock                8000                       # Clock period in ticks
system.cpu0.interrupts.pwrStateResidencyTicks::UNDEFINED  15267344125                       # Cumulative time (in ticks) in various power states
system.cpu0.itb.walker.pwrStateResidencyTicks::UNDEFINED  15267344125                       # Cumulative time (in ticks) in various power states
system.cpu0.itb.rdAccesses                          0                       # TLB accesses on read requests
system.cpu0.itb.wrAccesses                    1025869                       # TLB accesses on write requests
system.cpu0.itb.rdMisses                            0                       # TLB misses on read requests
system.cpu0.itb.wrMisses                         3450                       # TLB misses on write requests
system.cpu0.workload.numSyscalls                    1                       # Number of system calls
system.cpu0.pwrStateResidencyTicks::ON    15267344125                       # Cumulative time (in ticks) in various power states
system.cpu0.numCycles                        30534688                       # number of cpu cycles simulated
system.cpu0.numWorkItemsStarted                     0                       # number of work items this cpu started
system.cpu0.numWorkItemsCompleted                   0                       # number of work items this cpu completed
system.cpu0.fetch.icacheStallCycles           1046882                       # Number of cycles fetch is stalled on an Icache miss
system.cpu0.fetch.Insts                       3573781                       # Number of instructions fetch has processed
system.cpu0.fetch.Branches                    1223065                       # Number of branches that fetch encountered
system.cpu0.fetch.predictedBranches            561537                       # Number of branches that fetch has predicted taken
system.cpu0.fetch.Cycles                     29353354                       # Number of cycles fetch has run and was not squashing or blocked
system.cpu0.fetch.SquashCycles                  97510                       # Number of cycles fetch has spent squashing
system.cpu0.fetch.TlbCycles                      1854                       # Number of cycles fetch has spent waiting for tlb
system.cpu0.fetch.MiscStallCycles                 634                       # Number of cycles fetch has spent waiting on interrupts, or bad addresses, or out of MSHRs
system.cpu0.fetch.PendingTrapStallCycles        34898                       # Number of stall cycles due to pending traps
system.cpu0.fetch.CacheLines                  1022419                       # Number of cache lines fetched
system.cpu0.fetch.IcacheSquashes                 5750                       # Number of outstanding Icache misses that were squashed
system.cpu0.fetch.ItlbSquashes                      7                       # Number of outstanding ITLB misses that were squashed
system.cpu0.fetch.rateDist::samples          30486377                       # Number of instructions fetched each cycle (Total)
system.cpu0.fetch.rateDist::mean             0.235751                       # Number of instructions fetched each cycle (Total)
system.cpu0.fetch.rateDist::stdev            1.223375                       # Number of instructions fetched each cycle (Total)
system.cpu0.fetch.rateDist::underflows              0      0.00%      0.00% # Number of instructions fetched each cycle (Total)
system.cpu0.fetch.rateDist::0                29076655     95.38%     95.38% # Number of instructions fetched each cycle (Total)
system.cpu0.fetch.rateDist::1                   17490      0.06%     95.43% # Number of instructions fetched each cycle (Total)
system.cpu0.fetch.rateDist::2                  518138      1.70%     97.13% # Number of instructions fetched each cycle (Total)
system.cpu0.fetch.rateDist::3                   23101      0.08%     97.21% # Number of instructions fetched each cycle (Total)
system.cpu0.fetch.rateDist::4                  105675      0.35%     97.56% # Number of instructions fetched each cycle (Total)
system.cpu0.fetch.rateDist::5                   48712      0.16%     97.72% # Number of instructions fetched each cycle (Total)
system.cpu0.fetch.rateDist::6                   78644      0.26%     97.97% # Number of instructions fetched each cycle (Total)
system.cpu0.fetch.rateDist::7                   17707      0.06%     98.03% # Number of instructions fetched each cycle (Total)
system.cpu0.fetch.rateDist::8                  600255      1.97%    100.00% # Number of instructions fetched each cycle (Total)
system.cpu0.fetch.rateDist::overflows               0      0.00%    100.00% # Number of instructions fetched each cycle (Total)
system.cpu0.fetch.rateDist::min_value               0                       # Number of instructions fetched each cycle (Total)
system.cpu0.fetch.rateDist::max_value               8                       # Number of instructions fetched each cycle (Total)
system.cpu0.fetch.rateDist::total            30486377                       # Number of instructions fetched each cycle (Total)
system.cpu0.fetch.branchRate                 0.040055                       # Number of branch fetches per cycle
system.cpu0.fetch.rate                       0.117040                       # Number of inst fetches per cycle
system.cpu0.decode.IdleCycles                  497492                       # Number of cycles decode is idle
system.cpu0.decode.BlockedCycles             29029476                       # Number of cycles decode is blocked
system.cpu0.decode.RunCycles                   629582                       # Number of cycles decode is running
system.cpu0.decode.UnblockCycles               281072                       # Number of cycles decode is unblocking
system.cpu0.decode.SquashCycles                 48755                       # Number of cycles decode is squashing
system.cpu0.decode.DecodedInsts               6023365                       # Number of instructions handled by decode
system.cpu0.rename.SquashCycles                 48755                       # Number of cycles rename is squashing
system.cpu0.rename.IdleCycles                  579591                       # Number of cycles rename is idle
system.cpu0.rename.BlockCycles               27944009                       # Number of cycles rename is blocking
system.cpu0.rename.serializeStallCycles         15056                       # count of cycles rename stalled for serializing inst
system.cpu0.rename.RunCycles                   759144                       # Number of cycles rename is running
system.cpu0.rename.UnblockCycles              1139822                       # Number of cycles rename is unblocking
system.cpu0.rename.RenamedInsts               5799651                       # Number of instructions processed by rename
system.cpu0.rename.ROBFullEvents                51312                       # Number of times rename has blocked due to ROB full
system.cpu0.rename.IQFullEvents                986599                       # Number of times rename has blocked due to IQ full
system.cpu0.rename.LQFullEvents                 93142                       # Number of times rename has blocked due to LQ full
system.cpu0.rename.SQFullEvents                   600                       # Number of times rename has blocked due to SQ full
system.cpu0.rename.RenamedOperands            6934157                       # Number of destination operands rename has renamed
system.cpu0.rename.RenameLookups             16137860                       # Number of register rename lookups that rename has made
system.cpu0.rename.int_rename_lookups         7620343                       # Number of integer rename lookups
system.cpu0.rename.fp_rename_lookups            32866                       # Number of floating rename lookups
system.cpu0.rename.CommittedMaps              2871929                       # Number of HB maps that are committed
system.cpu0.rename.UndoneMaps                 4062314                       # Number of HB maps that are undone due to squashing
system.cpu0.rename.serializingInsts               218                       # count of serializing insts renamed
system.cpu0.rename.tempSerializingInsts           264                       # count of temporary serializing insts renamed
system.cpu0.rename.skidInsts                  1812468                       # count of insts added to the skid buffer
system.cpu0.memDep0.insertedLoads             1025976                       # Number of loads inserted to the mem dependence unit.
system.cpu0.memDep0.insertedStores              65404                       # Number of stores inserted to the mem dependence unit.
system.cpu0.memDep0.conflictingLoads             4144                       # Number of conflicting loads.
system.cpu0.memDep0.conflictingStores            4261                       # Number of conflicting stores.
system.cpu0.iq.iqInstsAdded                   5521111                       # Number of instructions added to the IQ (excludes non-spec)
system.cpu0.iq.iqNonSpecInstsAdded               3803                       # Number of non-speculative instructions added to the IQ
system.cpu0.iq.iqInstsIssued                  4104666                       # Number of instructions issued
system.cpu0.iq.iqSquashedInstsIssued             5694                       # Number of squashed instructions issued
system.cpu0.iq.iqSquashedInstsExamined        3139997                       # Number of squashed instructions iterated over during squash; mainly for profiling
system.cpu0.iq.iqSquashedOperandsExamined      6513125                       # Number of squashed operands that are examined and possibly removed from graph
system.cpu0.iq.iqSquashedNonSpecRemoved          3802                       # Number of squashed non-spec instructions that were removed
system.cpu0.iq.issued_per_cycle::samples     30486377                       # Number of insts issued each cycle
system.cpu0.iq.issued_per_cycle::mean        0.134639                       # Number of insts issued each cycle
system.cpu0.iq.issued_per_cycle::stdev       0.659941                       # Number of insts issued each cycle
system.cpu0.iq.issued_per_cycle::underflows            0      0.00%      0.00% # Number of insts issued each cycle
system.cpu0.iq.issued_per_cycle::0           28717069     94.20%     94.20% # Number of insts issued each cycle
system.cpu0.iq.issued_per_cycle::1             754167      2.47%     96.67% # Number of insts issued each cycle
system.cpu0.iq.issued_per_cycle::2             380737      1.25%     97.92% # Number of insts issued each cycle
system.cpu0.iq.issued_per_cycle::3             256545      0.84%     98.76% # Number of insts issued each cycle
system.cpu0.iq.issued_per_cycle::4             216069      0.71%     99.47% # Number of insts issued each cycle
system.cpu0.iq.issued_per_cycle::5              67536      0.22%     99.69% # Number of insts issued each cycle
system.cpu0.iq.issued_per_cycle::6              57661      0.19%     99.88% # Number of insts issued each cycle
system.cpu0.iq.issued_per_cycle::7              21276      0.07%     99.95% # Number of insts issued each cycle
system.cpu0.iq.issued_per_cycle::8              15317      0.05%    100.00% # Number of insts issued each cycle
system.cpu0.iq.issued_per_cycle::overflows            0      0.00%    100.00% # Number of insts issued each cycle
system.cpu0.iq.issued_per_cycle::min_value            0                       # Number of insts issued each cycle
system.cpu0.iq.issued_per_cycle::max_value            8                       # Number of insts issued each cycle
system.cpu0.iq.issued_per_cycle::total       30486377                       # Number of insts issued each cycle
system.cpu0.iq.fu_full::No_OpClass                  0      0.00%      0.00% # attempts to use FU when none available
system.cpu0.iq.fu_full::IntAlu                   9898     68.69%     68.69% # attempts to use FU when none available
system.cpu0.iq.fu_full::IntMult                     0      0.00%     68.69% # attempts to use FU when none available
system.cpu0.iq.fu_full::IntDiv                      0      0.00%     68.69% # attempts to use FU when none available
system.cpu0.iq.fu_full::FloatAdd                  995      6.91%     75.60% # attempts to use FU when none available
system.cpu0.iq.fu_full::FloatCmp                    0      0.00%     75.60% # attempts to use FU when none available
system.cpu0.iq.fu_full::FloatCvt                    0      0.00%     75.60% # attempts to use FU when none available
system.cpu0.iq.fu_full::FloatMult                   0      0.00%     75.60% # attempts to use FU when none available
system.cpu0.iq.fu_full::FloatMultAcc                0      0.00%     75.60% # attempts to use FU when none available
system.cpu0.iq.fu_full::FloatDiv                    0      0.00%     75.60% # attempts to use FU when none available
system.cpu0.iq.fu_full::FloatMisc                   0      0.00%     75.60% # attempts to use FU when none available
system.cpu0.iq.fu_full::FloatSqrt                   0      0.00%     75.60% # attempts to use FU when none available
system.cpu0.iq.fu_full::SimdAdd                     0      0.00%     75.60% # attempts to use FU when none available
system.cpu0.iq.fu_full::SimdAddAcc                  0      0.00%     75.60% # attempts to use FU when none available
system.cpu0.iq.fu_full::SimdAlu                     0      0.00%     75.60% # attempts to use FU when none available
system.cpu0.iq.fu_full::SimdCmp                     0      0.00%     75.60% # attempts to use FU when none available
system.cpu0.iq.fu_full::SimdCvt                     0      0.00%     75.60% # attempts to use FU when none available
system.cpu0.iq.fu_full::SimdMisc                    0      0.00%     75.60% # attempts to use FU when none available
system.cpu0.iq.fu_full::SimdMult                    0      0.00%     75.60% # attempts to use FU when none available
system.cpu0.iq.fu_full::SimdMultAcc                 0      0.00%     75.60% # attempts to use FU when none available
system.cpu0.iq.fu_full::SimdShift                   0      0.00%     75.60% # attempts to use FU when none available
system.cpu0.iq.fu_full::SimdShiftAcc                0      0.00%     75.60% # attempts to use FU when none available
system.cpu0.iq.fu_full::SimdSqrt                    0      0.00%     75.60% # attempts to use FU when none available
system.cpu0.iq.fu_full::SimdFloatAdd                0      0.00%     75.60% # attempts to use FU when none available
system.cpu0.iq.fu_full::SimdFloatAlu                0      0.00%     75.60% # attempts to use FU when none available
system.cpu0.iq.fu_full::SimdFloatCmp                0      0.00%     75.60% # attempts to use FU when none available
system.cpu0.iq.fu_full::SimdFloatCvt                0      0.00%     75.60% # attempts to use FU when none available
system.cpu0.iq.fu_full::SimdFloatDiv                0      0.00%     75.60% # attempts to use FU when none available
system.cpu0.iq.fu_full::SimdFloatMisc               0      0.00%     75.60% # attempts to use FU when none available
system.cpu0.iq.fu_full::SimdFloatMult               0      0.00%     75.60% # attempts to use FU when none available
system.cpu0.iq.fu_full::SimdFloatMultAcc            0      0.00%     75.60% # attempts to use FU when none available
system.cpu0.iq.fu_full::SimdFloatSqrt               0      0.00%     75.60% # attempts to use FU when none available
system.cpu0.iq.fu_full::MemRead                  3139     21.78%     97.38% # attempts to use FU when none available
system.cpu0.iq.fu_full::MemWrite                  225      1.56%     98.95% # attempts to use FU when none available
system.cpu0.iq.fu_full::FloatMemRead              112      0.78%     99.72% # attempts to use FU when none available
system.cpu0.iq.fu_full::FloatMemWrite              40      0.28%    100.00% # attempts to use FU when none available
system.cpu0.iq.fu_full::IprAccess                   0      0.00%    100.00% # attempts to use FU when none available
system.cpu0.iq.fu_full::InstPrefetch                0      0.00%    100.00% # attempts to use FU when none available
system.cpu0.iq.FU_type_0::No_OpClass            13089      0.32%      0.32% # Type of FU issued
system.cpu0.iq.FU_type_0::IntAlu              3372288     82.16%     82.48% # Type of FU issued
system.cpu0.iq.FU_type_0::IntMult                1032      0.03%     82.50% # Type of FU issued
system.cpu0.iq.FU_type_0::IntDiv                 9533      0.23%     82.73% # Type of FU issued
system.cpu0.iq.FU_type_0::FloatAdd              12702      0.31%     83.04% # Type of FU issued
system.cpu0.iq.FU_type_0::FloatCmp                  0      0.00%     83.04% # Type of FU issued
system.cpu0.iq.FU_type_0::FloatCvt                  0      0.00%     83.04% # Type of FU issued
system.cpu0.iq.FU_type_0::FloatMult                 0      0.00%     83.04% # Type of FU issued
system.cpu0.iq.FU_type_0::FloatMultAcc              0      0.00%     83.04% # Type of FU issued
system.cpu0.iq.FU_type_0::FloatDiv                  0      0.00%     83.04% # Type of FU issued
system.cpu0.iq.FU_type_0::FloatMisc                 0      0.00%     83.04% # Type of FU issued
system.cpu0.iq.FU_type_0::FloatSqrt                 0      0.00%     83.04% # Type of FU issued
system.cpu0.iq.FU_type_0::SimdAdd                   0      0.00%     83.04% # Type of FU issued
system.cpu0.iq.FU_type_0::SimdAddAcc                0      0.00%     83.04% # Type of FU issued
system.cpu0.iq.FU_type_0::SimdAlu                   0      0.00%     83.04% # Type of FU issued
system.cpu0.iq.FU_type_0::SimdCmp                   0      0.00%     83.04% # Type of FU issued
system.cpu0.iq.FU_type_0::SimdCvt                   0      0.00%     83.04% # Type of FU issued
system.cpu0.iq.FU_type_0::SimdMisc                  0      0.00%     83.04% # Type of FU issued
system.cpu0.iq.FU_type_0::SimdMult                  0      0.00%     83.04% # Type of FU issued
system.cpu0.iq.FU_type_0::SimdMultAcc               0      0.00%     83.04% # Type of FU issued
system.cpu0.iq.FU_type_0::SimdShift                 0      0.00%     83.04% # Type of FU issued
system.cpu0.iq.FU_type_0::SimdShiftAcc              0      0.00%     83.04% # Type of FU issued
system.cpu0.iq.FU_type_0::SimdSqrt                  0      0.00%     83.04% # Type of FU issued
system.cpu0.iq.FU_type_0::SimdFloatAdd              0      0.00%     83.04% # Type of FU issued
system.cpu0.iq.FU_type_0::SimdFloatAlu              0      0.00%     83.04% # Type of FU issued
system.cpu0.iq.FU_type_0::SimdFloatCmp              0      0.00%     83.04% # Type of FU issued
system.cpu0.iq.FU_type_0::SimdFloatCvt              0      0.00%     83.04% # Type of FU issued
system.cpu0.iq.FU_type_0::SimdFloatDiv              0      0.00%     83.04% # Type of FU issued
system.cpu0.iq.FU_type_0::SimdFloatMisc             0      0.00%     83.04% # Type of FU issued
system.cpu0.iq.FU_type_0::SimdFloatMult             0      0.00%     83.04% # Type of FU issued
system.cpu0.iq.FU_type_0::SimdFloatMultAcc            0      0.00%     83.04% # Type of FU issued
system.cpu0.iq.FU_type_0::SimdFloatSqrt             0      0.00%     83.04% # Type of FU issued
system.cpu0.iq.FU_type_0::MemRead              644582     15.70%     98.75% # Type of FU issued
system.cpu0.iq.FU_type_0::MemWrite              48745      1.19%     99.93% # Type of FU issued
system.cpu0.iq.FU_type_0::FloatMemRead           2536      0.06%    100.00% # Type of FU issued
system.cpu0.iq.FU_type_0::FloatMemWrite           159      0.00%    100.00% # Type of FU issued
system.cpu0.iq.FU_type_0::IprAccess                 0      0.00%    100.00% # Type of FU issued
system.cpu0.iq.FU_type_0::InstPrefetch              0      0.00%    100.00% # Type of FU issued
system.cpu0.iq.FU_type_0::total               4104666                       # Type of FU issued
system.cpu0.iq.rate                          0.134426                       # Inst issue rate
system.cpu0.iq.fu_busy_cnt                      14409                       # FU busy when requested
system.cpu0.iq.fu_busy_rate                  0.003510                       # FU busy rate (busy events/executed inst)
system.cpu0.iq.int_inst_queue_reads          38683652                       # Number of integer instruction queue reads
system.cpu0.iq.int_inst_queue_writes          8637785                       # Number of integer instruction queue writes
system.cpu0.iq.int_inst_queue_wakeup_accesses      3951712                       # Number of integer instruction queue wakeup accesses
system.cpu0.iq.fp_inst_queue_reads              32160                       # Number of floating instruction queue reads
system.cpu0.iq.fp_inst_queue_writes             27132                       # Number of floating instruction queue writes
system.cpu0.iq.fp_inst_queue_wakeup_accesses        14078                       # Number of floating instruction queue wakeup accesses
system.cpu0.iq.vec_inst_queue_reads                 0                       # Number of vector instruction queue reads
system.cpu0.iq.vec_inst_queue_writes                0                       # Number of vector instruction queue writes
system.cpu0.iq.vec_inst_queue_wakeup_accesses            0                       # Number of vector instruction queue wakeup accesses
system.cpu0.iq.int_alu_accesses               4089430                       # Number of integer alu accesses
system.cpu0.iq.fp_alu_accesses                  16556                       # Number of floating point alu accesses
system.cpu0.iq.vec_alu_accesses                     0                       # Number of vector alu accesses
system.cpu0.iew.lsq.thread0.forwLoads            4805                       # Number of loads that had data forwarded from stores
system.cpu0.iew.lsq.thread0.invAddrLoads            0                       # Number of loads ignored due to an invalid address
system.cpu0.iew.lsq.thread0.squashedLoads       586733                       # Number of loads squashed
system.cpu0.iew.lsq.thread0.ignoredResponses          114                       # Number of memory responses ignored because the instruction is squashed
system.cpu0.iew.lsq.thread0.memOrderViolation            6                       # Number of memory ordering violations
system.cpu0.iew.lsq.thread0.squashedStores        37469                       # Number of stores squashed
system.cpu0.iew.lsq.thread0.invAddrSwpfs            0                       # Number of software prefetches ignored due to an invalid address
system.cpu0.iew.lsq.thread0.blockedLoads            0                       # Number of blocked loads due to partial load-store forwarding
system.cpu0.iew.lsq.thread0.rescheduledLoads           35                       # Number of loads that were rescheduled
system.cpu0.iew.lsq.thread0.cacheBlocked         1053                       # Number of times an access to memory failed due to the cache being blocked
system.cpu0.iew.iewIdleCycles                       0                       # Number of cycles IEW is idle
system.cpu0.iew.iewSquashCycles                 48755                       # Number of cycles IEW is squashing
system.cpu0.iew.iewBlockCycles               26419954                       # Number of cycles IEW is blocking
system.cpu0.iew.iewUnblockCycles               233504                       # Number of cycles IEW is unblocking
system.cpu0.iew.iewDispatchedInsts            5524914                       # Number of instructions dispatched to IQ
system.cpu0.iew.iewDispSquashedInsts             2760                       # Number of squashed instructions skipped by dispatch
system.cpu0.iew.iewDispLoadInsts              1025976                       # Number of dispatched load instructions
system.cpu0.iew.iewDispStoreInsts               65404                       # Number of dispatched store instructions
system.cpu0.iew.iewDispNonSpecInsts              1394                       # Number of dispatched non-speculative instructions
system.cpu0.iew.iewIQFullEvents                 12933                       # Number of times the IQ has become full, causing a stall
system.cpu0.iew.iewLSQFullEvents                28975                       # Number of times the LSQ has become full, causing a stall
system.cpu0.iew.memOrderViolationEvents             6                       # Number of memory order violations
system.cpu0.iew.predictedTakenIncorrect         24742                       # Number of branches that were predicted taken incorrectly
system.cpu0.iew.predictedNotTakenIncorrect        29870                       # Number of branches that were predicted not taken incorrectly
system.cpu0.iew.branchMispredicts               54612                       # Number of branch mispredicts detected at execute
system.cpu0.iew.iewExecutedInsts              4038736                       # Number of executed instructions
system.cpu0.iew.iewExecLoadInsts               621551                       # Number of load instructions executed
system.cpu0.iew.iewExecSquashedInsts            65930                       # Number of squashed instructions skipped in execute
system.cpu0.iew.exec_swp                            0                       # number of swp insts executed
system.cpu0.iew.exec_nop                            0                       # number of nop insts executed
system.cpu0.iew.exec_refs                      667300                       # number of memory reference insts executed
system.cpu0.iew.exec_branches                  513638                       # Number of branches executed
system.cpu0.iew.exec_stores                     45749                       # Number of stores executed
system.cpu0.iew.exec_rate                    0.132267                       # Inst execution rate
system.cpu0.iew.wb_sent                       3978364                       # cumulative count of insts sent to commit
system.cpu0.iew.wb_count                      3965790                       # cumulative count of insts written-back
system.cpu0.iew.wb_producers                  2830589                       # num instructions producing a value
system.cpu0.iew.wb_consumers                  4659277                       # num instructions consuming a value
system.cpu0.iew.wb_rate                      0.129878                       # insts written-back per cycle
system.cpu0.iew.wb_fanout                    0.607517                       # average fanout of values written-back
system.cpu0.commit.commitSquashedInsts        3140315                       # The number of squashed insts skipped by commit
system.cpu0.commit.commitNonSpecStalls              1                       # The number of times commit has been forced to stall to communicate backwards
system.cpu0.commit.branchMispredicts            48752                       # The number of times a branch was mispredicted
system.cpu0.commit.committed_per_cycle::samples     30045216                       # Number of insts commited each cycle
system.cpu0.commit.committed_per_cycle::mean     0.079380                       # Number of insts commited each cycle
system.cpu0.commit.committed_per_cycle::stdev     0.513574                       # Number of insts commited each cycle
system.cpu0.commit.committed_per_cycle::underflows            0      0.00%      0.00% # Number of insts commited each cycle
system.cpu0.commit.committed_per_cycle::0     28991774     96.49%     96.49% # Number of insts commited each cycle
system.cpu0.commit.committed_per_cycle::1       482340      1.61%     98.10% # Number of insts commited each cycle
system.cpu0.commit.committed_per_cycle::2       127092      0.42%     98.52% # Number of insts commited each cycle
system.cpu0.commit.committed_per_cycle::3       329917      1.10%     99.62% # Number of insts commited each cycle
system.cpu0.commit.committed_per_cycle::4        42996      0.14%     99.76% # Number of insts commited each cycle
system.cpu0.commit.committed_per_cycle::5        22766      0.08%     99.84% # Number of insts commited each cycle
system.cpu0.commit.committed_per_cycle::6         5029      0.02%     99.86% # Number of insts commited each cycle
system.cpu0.commit.committed_per_cycle::7         3696      0.01%     99.87% # Number of insts commited each cycle
system.cpu0.commit.committed_per_cycle::8        39606      0.13%    100.00% # Number of insts commited each cycle
system.cpu0.commit.committed_per_cycle::overflows            0      0.00%    100.00% # Number of insts commited each cycle
system.cpu0.commit.committed_per_cycle::min_value            0                       # Number of insts commited each cycle
system.cpu0.commit.committed_per_cycle::max_value            8                       # Number of insts commited each cycle
system.cpu0.commit.committed_per_cycle::total     30045216                       # Number of insts commited each cycle
system.cpu0.commit.committedInsts             1195522                       # Number of instructions committed
system.cpu0.commit.committedOps               2384983                       # Number of ops (including micro ops) committed
system.cpu0.commit.swp_count                        0                       # Number of s/w prefetches committed
system.cpu0.commit.refs                        467185                       # Number of memory references committed
system.cpu0.commit.loads                       439250                       # Number of loads committed
system.cpu0.commit.membars                          0                       # Number of memory barriers committed
system.cpu0.commit.branches                    423778                       # Number of branches committed
system.cpu0.commit.vec_insts                        0                       # Number of committed Vector instructions.
system.cpu0.commit.fp_insts                     11232                       # Number of committed floating point instructions.
system.cpu0.commit.int_insts                  2373569                       # Number of committed integer instructions.
system.cpu0.commit.function_calls                4954                       # Number of function calls committed.
system.cpu0.commit.op_class_0::No_OpClass         3445      0.14%      0.14% # Class of committed instruction
system.cpu0.commit.op_class_0::IntAlu         1896121     79.50%     79.65% # Class of committed instruction
system.cpu0.commit.op_class_0::IntMult            198      0.01%     79.66% # Class of committed instruction
system.cpu0.commit.op_class_0::IntDiv            8434      0.35%     80.01% # Class of committed instruction
system.cpu0.commit.op_class_0::FloatAdd          9600      0.40%     80.41% # Class of committed instruction
system.cpu0.commit.op_class_0::FloatCmp             0      0.00%     80.41% # Class of committed instruction
system.cpu0.commit.op_class_0::FloatCvt             0      0.00%     80.41% # Class of committed instruction
system.cpu0.commit.op_class_0::FloatMult            0      0.00%     80.41% # Class of committed instruction
system.cpu0.commit.op_class_0::FloatMultAcc            0      0.00%     80.41% # Class of committed instruction
system.cpu0.commit.op_class_0::FloatDiv             0      0.00%     80.41% # Class of committed instruction
system.cpu0.commit.op_class_0::FloatMisc            0      0.00%     80.41% # Class of committed instruction
system.cpu0.commit.op_class_0::FloatSqrt            0      0.00%     80.41% # Class of committed instruction
system.cpu0.commit.op_class_0::SimdAdd              0      0.00%     80.41% # Class of committed instruction
system.cpu0.commit.op_class_0::SimdAddAcc            0      0.00%     80.41% # Class of committed instruction
system.cpu0.commit.op_class_0::SimdAlu              0      0.00%     80.41% # Class of committed instruction
system.cpu0.commit.op_class_0::SimdCmp              0      0.00%     80.41% # Class of committed instruction
system.cpu0.commit.op_class_0::SimdCvt              0      0.00%     80.41% # Class of committed instruction
system.cpu0.commit.op_class_0::SimdMisc             0      0.00%     80.41% # Class of committed instruction
system.cpu0.commit.op_class_0::SimdMult             0      0.00%     80.41% # Class of committed instruction
system.cpu0.commit.op_class_0::SimdMultAcc            0      0.00%     80.41% # Class of committed instruction
system.cpu0.commit.op_class_0::SimdShift            0      0.00%     80.41% # Class of committed instruction
system.cpu0.commit.op_class_0::SimdShiftAcc            0      0.00%     80.41% # Class of committed instruction
system.cpu0.commit.op_class_0::SimdSqrt             0      0.00%     80.41% # Class of committed instruction
system.cpu0.commit.op_class_0::SimdFloatAdd            0      0.00%     80.41% # Class of committed instruction
system.cpu0.commit.op_class_0::SimdFloatAlu            0      0.00%     80.41% # Class of committed instruction
system.cpu0.commit.op_class_0::SimdFloatCmp            0      0.00%     80.41% # Class of committed instruction
system.cpu0.commit.op_class_0::SimdFloatCvt            0      0.00%     80.41% # Class of committed instruction
system.cpu0.commit.op_class_0::SimdFloatDiv            0      0.00%     80.41% # Class of committed instruction
system.cpu0.commit.op_class_0::SimdFloatMisc            0      0.00%     80.41% # Class of committed instruction
system.cpu0.commit.op_class_0::SimdFloatMult            0      0.00%     80.41% # Class of committed instruction
system.cpu0.commit.op_class_0::SimdFloatMultAcc            0      0.00%     80.41% # Class of committed instruction
system.cpu0.commit.op_class_0::SimdFloatSqrt            0      0.00%     80.41% # Class of committed instruction
system.cpu0.commit.op_class_0::MemRead         437618     18.35%     98.76% # Class of committed instruction
system.cpu0.commit.op_class_0::MemWrite         27935      1.17%     99.93% # Class of committed instruction
system.cpu0.commit.op_class_0::FloatMemRead         1632      0.07%    100.00% # Class of committed instruction
system.cpu0.commit.op_class_0::FloatMemWrite            0      0.00%    100.00% # Class of committed instruction
system.cpu0.commit.op_class_0::IprAccess            0      0.00%    100.00% # Class of committed instruction
system.cpu0.commit.op_class_0::InstPrefetch            0      0.00%    100.00% # Class of committed instruction
system.cpu0.commit.op_class_0::total          2384983                       # Class of committed instruction
system.cpu0.commit.bw_lim_events                39606                       # number cycles where commit BW limit reached
system.cpu0.rob.rob_reads                    35530908                       # The number of ROB reads
system.cpu0.rob.rob_writes                   11492948                       # The number of ROB writes
system.cpu0.timesIdled                            384                       # Number of times that the entire CPU went into an idle state and unscheduled itself
system.cpu0.idleCycles                          48311                       # Total number of cycles that the CPU has spent unscheduled due to idling
system.cpu0.committedInsts                    1195522                       # Number of Instructions Simulated
system.cpu0.committedOps                      2384983                       # Number of Ops (including micro ops) Simulated
system.cpu0.cpi                             25.540883                       # CPI: Cycles Per Instruction
system.cpu0.cpi_total                       25.540883                       # CPI: Total CPI of All Threads
system.cpu0.ipc                              0.039153                       # IPC: Instructions Per Cycle
system.cpu0.ipc_total                        0.039153                       # IPC: Total IPC of All Threads
system.cpu0.int_regfile_reads                 4204739                       # number of integer regfile reads
system.cpu0.int_regfile_writes                3414029                       # number of integer regfile writes
system.cpu0.fp_regfile_reads                    24769                       # number of floating regfile reads
system.cpu0.fp_regfile_writes                   12323                       # number of floating regfile writes
system.cpu0.cc_regfile_reads                  2745708                       # number of cc regfile reads
system.cpu0.cc_regfile_writes                 1169901                       # number of cc regfile writes
system.cpu0.misc_regfile_reads                2120042                       # number of misc regfile reads
system.cpu0.dcache.tags.pwrStateResidencyTicks::UNDEFINED  15267344125                       # Cumulative time (in ticks) in various power states
system.cpu0.dcache.tags.replacements           232627                       # number of replacements
system.cpu0.dcache.tags.tagsinuse                1024                       # Cycle average of tags in use
system.cpu0.dcache.tags.total_refs             239170                       # Total number of references to valid blocks.
system.cpu0.dcache.tags.sampled_refs           232627                       # Sample count of references to valid blocks.
system.cpu0.dcache.tags.avg_refs             1.028127                       # Average number of references to valid blocks.
system.cpu0.dcache.tags.warmup_cycle                0                       # Cycle when the warmup percentage was hit.
system.cpu0.dcache.tags.occ_blocks::cpu0.data         1024                       # Average occupied blocks per requestor
system.cpu0.dcache.tags.occ_percent::cpu0.data            1                       # Average percentage of cache occupancy
system.cpu0.dcache.tags.occ_percent::total            1                       # Average percentage of cache occupancy
system.cpu0.dcache.tags.occ_task_id_blocks::1024         1024                       # Occupied blocks per task id
system.cpu0.dcache.tags.age_task_id_blocks_1024::0          133                       # Occupied blocks per task id
system.cpu0.dcache.tags.age_task_id_blocks_1024::1          788                       # Occupied blocks per task id
system.cpu0.dcache.tags.age_task_id_blocks_1024::2          103                       # Occupied blocks per task id
system.cpu0.dcache.tags.occ_task_id_percent::1024            1                       # Percentage of cache occupancy per task id
system.cpu0.dcache.tags.tag_accesses          2798351                       # Number of tag accesses
system.cpu0.dcache.tags.data_accesses         2798351                       # Number of data accesses
system.cpu0.dcache.pwrStateResidencyTicks::UNDEFINED  15267344125                       # Cumulative time (in ticks) in various power states
system.cpu0.dcache.ReadReq_hits::cpu0.data       209376                       # number of ReadReq hits
system.cpu0.dcache.ReadReq_hits::total         209376                       # number of ReadReq hits
system.cpu0.dcache.WriteReq_hits::cpu0.data        26996                       # number of WriteReq hits
system.cpu0.dcache.WriteReq_hits::total         26996                       # number of WriteReq hits
system.cpu0.dcache.demand_hits::cpu0.data       236372                       # number of demand (read+write) hits
system.cpu0.dcache.demand_hits::total          236372                       # number of demand (read+write) hits
system.cpu0.dcache.overall_hits::cpu0.data       236372                       # number of overall hits
system.cpu0.dcache.overall_hits::total         236372                       # number of overall hits
system.cpu0.dcache.ReadReq_misses::cpu0.data       404120                       # number of ReadReq misses
system.cpu0.dcache.ReadReq_misses::total       404120                       # number of ReadReq misses
system.cpu0.dcache.WriteReq_misses::cpu0.data          939                       # number of WriteReq misses
system.cpu0.dcache.WriteReq_misses::total          939                       # number of WriteReq misses
system.cpu0.dcache.demand_misses::cpu0.data       405059                       # number of demand (read+write) misses
system.cpu0.dcache.demand_misses::total        405059                       # number of demand (read+write) misses
system.cpu0.dcache.overall_misses::cpu0.data       405059                       # number of overall misses
system.cpu0.dcache.overall_misses::total       405059                       # number of overall misses
system.cpu0.dcache.ReadReq_miss_latency::cpu0.data  33506487500                       # number of ReadReq miss cycles
system.cpu0.dcache.ReadReq_miss_latency::total  33506487500                       # number of ReadReq miss cycles
system.cpu0.dcache.WriteReq_miss_latency::cpu0.data     37618999                       # number of WriteReq miss cycles
system.cpu0.dcache.WriteReq_miss_latency::total     37618999                       # number of WriteReq miss cycles
system.cpu0.dcache.demand_miss_latency::cpu0.data  33544106499                       # number of demand (read+write) miss cycles
system.cpu0.dcache.demand_miss_latency::total  33544106499                       # number of demand (read+write) miss cycles
system.cpu0.dcache.overall_miss_latency::cpu0.data  33544106499                       # number of overall miss cycles
system.cpu0.dcache.overall_miss_latency::total  33544106499                       # number of overall miss cycles
system.cpu0.dcache.ReadReq_accesses::cpu0.data       613496                       # number of ReadReq accesses(hits+misses)
system.cpu0.dcache.ReadReq_accesses::total       613496                       # number of ReadReq accesses(hits+misses)
system.cpu0.dcache.WriteReq_accesses::cpu0.data        27935                       # number of WriteReq accesses(hits+misses)
system.cpu0.dcache.WriteReq_accesses::total        27935                       # number of WriteReq accesses(hits+misses)
system.cpu0.dcache.demand_accesses::cpu0.data       641431                       # number of demand (read+write) accesses
system.cpu0.dcache.demand_accesses::total       641431                       # number of demand (read+write) accesses
system.cpu0.dcache.overall_accesses::cpu0.data       641431                       # number of overall (read+write) accesses
system.cpu0.dcache.overall_accesses::total       641431                       # number of overall (read+write) accesses
system.cpu0.dcache.ReadReq_miss_rate::cpu0.data     0.658717                       # miss rate for ReadReq accesses
system.cpu0.dcache.ReadReq_miss_rate::total     0.658717                       # miss rate for ReadReq accesses
system.cpu0.dcache.WriteReq_miss_rate::cpu0.data     0.033614                       # miss rate for WriteReq accesses
system.cpu0.dcache.WriteReq_miss_rate::total     0.033614                       # miss rate for WriteReq accesses
system.cpu0.dcache.demand_miss_rate::cpu0.data     0.631493                       # miss rate for demand accesses
system.cpu0.dcache.demand_miss_rate::total     0.631493                       # miss rate for demand accesses
system.cpu0.dcache.overall_miss_rate::cpu0.data     0.631493                       # miss rate for overall accesses
[...]
system.l2.ReadSharedReq_accesses::total        231692                       # number of ReadSharedReq accesses(hits+misses)
system.l2.demand_accesses::cpu0.inst                3                       # number of demand (read+write) accesses
system.l2.demand_accesses::cpu0.data           232628                       # number of demand (read+write) accesses
system.l2.demand_accesses::total               232631                       # number of demand (read+write) accesses
system.l2.overall_accesses::cpu0.inst               3                       # number of overall (read+write) accesses
system.l2.overall_accesses::cpu0.data          232628                       # number of overall (read+write) accesses
system.l2.overall_accesses::total              232631                       # number of overall (read+write) accesses
system.l2.ReadExReq_miss_rate::cpu0.data     0.292735                       # miss rate for ReadExReq accesses
system.l2.ReadExReq_miss_rate::total         0.292735                       # miss rate for ReadExReq accesses
system.l2.ReadCleanReq_miss_rate::cpu0.inst     0.666667                       # miss rate for ReadCleanReq accesses
system.l2.ReadCleanReq_miss_rate::total      0.666667                       # miss rate for ReadCleanReq accesses
system.l2.ReadSharedReq_miss_rate::cpu0.data     0.831013                       # miss rate for ReadSharedReq accesses
system.l2.ReadSharedReq_miss_rate::total     0.831013                       # miss rate for ReadSharedReq accesses
system.l2.demand_miss_rate::cpu0.inst        0.666667                       # miss rate for demand accesses
system.l2.demand_miss_rate::cpu0.data        0.828847                       # miss rate for demand accesses
system.l2.demand_miss_rate::total            0.828845                       # miss rate for demand accesses
system.l2.overall_miss_rate::cpu0.inst       0.666667                       # miss rate for overall accesses
system.l2.overall_miss_rate::cpu0.data       0.828847                       # miss rate for overall accesses
system.l2.overall_miss_rate::total           0.828845                       # miss rate for overall accesses
system.l2.ReadExReq_avg_miss_latency::cpu0.data 101213.503650                       # average ReadExReq miss latency
system.l2.ReadExReq_avg_miss_latency::total 101213.503650                       # average ReadExReq miss latency
system.l2.ReadCleanReq_avg_miss_latency::cpu0.inst       102000                       # average ReadCleanReq miss latency
system.l2.ReadCleanReq_avg_miss_latency::total       102000                       # average ReadCleanReq miss latency
system.l2.ReadSharedReq_avg_miss_latency::cpu0.data 94944.138590                       # average ReadSharedReq miss latency
system.l2.ReadSharedReq_avg_miss_latency::total 94944.138590                       # average ReadSharedReq miss latency
system.l2.demand_avg_miss_latency::cpu0.inst       102000                       # average overall miss latency
system.l2.demand_avg_miss_latency::cpu0.data 94953.047772                       # average overall miss latency
system.l2.demand_avg_miss_latency::total 94953.120867                       # average overall miss latency
system.l2.overall_avg_miss_latency::cpu0.inst       102000                       # average overall miss latency
system.l2.overall_avg_miss_latency::cpu0.data 94953.047772                       # average overall miss latency
system.l2.overall_avg_miss_latency::total 94953.120867                       # average overall miss latency
system.l2.blocked_cycles::no_mshrs                  0                       # number of cycles access was blocked
system.l2.blocked_cycles::no_targets                0                       # number of cycles access was blocked
system.l2.blocked::no_mshrs                         0                       # number of cycles access was blocked
system.l2.blocked::no_targets                       0                       # number of cycles access was blocked
system.l2.avg_blocked_cycles::no_mshrs            nan                       # average number of cycles each access was blocked
system.l2.avg_blocked_cycles::no_targets          nan                       # average number of cycles each access was blocked
system.l2.writebacks::writebacks                  439                       # number of writebacks
system.l2.writebacks::total                       439                       # number of writebacks
system.l2.ReadExReq_mshr_misses::cpu0.data          274                       # number of ReadExReq MSHR misses
system.l2.ReadExReq_mshr_misses::total            274                       # number of ReadExReq MSHR misses
system.l2.ReadCleanReq_mshr_misses::cpu0.inst            2                       # number of ReadCleanReq MSHR misses
system.l2.ReadCleanReq_mshr_misses::total            2                       # number of ReadCleanReq MSHR misses
system.l2.ReadSharedReq_mshr_misses::cpu0.data       192539                       # number of ReadSharedReq MSHR misses
system.l2.ReadSharedReq_mshr_misses::total       192539                       # number of ReadSharedReq MSHR misses
system.l2.demand_mshr_misses::cpu0.inst             2                       # number of demand (read+write) MSHR misses
system.l2.demand_mshr_misses::cpu0.data        192813                       # number of demand (read+write) MSHR misses
system.l2.demand_mshr_misses::total            192815                       # number of demand (read+write) MSHR misses
system.l2.overall_mshr_misses::cpu0.inst            2                       # number of overall MSHR misses
system.l2.overall_mshr_misses::cpu0.data       192813                       # number of overall MSHR misses
system.l2.overall_mshr_misses::total           192815                       # number of overall MSHR misses
system.l2.ReadExReq_mshr_miss_latency::cpu0.data     24992500                       # number of ReadExReq MSHR miss cycles
system.l2.ReadExReq_mshr_miss_latency::total     24992500                       # number of ReadExReq MSHR miss cycles
system.l2.ReadCleanReq_mshr_miss_latency::cpu0.inst       184000                       # number of ReadCleanReq MSHR miss cycles
system.l2.ReadCleanReq_mshr_miss_latency::total       184000                       # number of ReadCleanReq MSHR miss cycles
system.l2.ReadSharedReq_mshr_miss_latency::cpu0.data  16355079500                       # number of ReadSharedReq MSHR miss cycles
system.l2.ReadSharedReq_mshr_miss_latency::total  16355079500                       # number of ReadSharedReq MSHR miss cycles
system.l2.demand_mshr_miss_latency::cpu0.inst       184000                       # number of demand (read+write) MSHR miss cycles
system.l2.demand_mshr_miss_latency::cpu0.data  16380072000                       # number of demand (read+write) MSHR miss cycles
system.l2.demand_mshr_miss_latency::total  16380256000                       # number of demand (read+write) MSHR miss cycles
system.l2.overall_mshr_miss_latency::cpu0.inst       184000                       # number of overall MSHR miss cycles
system.l2.overall_mshr_miss_latency::cpu0.data  16380072000                       # number of overall MSHR miss cycles
system.l2.overall_mshr_miss_latency::total  16380256000                       # number of overall MSHR miss cycles
system.l2.ReadExReq_mshr_miss_rate::cpu0.data     0.292735                       # mshr miss rate for ReadExReq accesses
system.l2.ReadExReq_mshr_miss_rate::total     0.292735                       # mshr miss rate for ReadExReq accesses
system.l2.ReadCleanReq_mshr_miss_rate::cpu0.inst     0.666667                       # mshr miss rate for ReadCleanReq accesses
system.l2.ReadCleanReq_mshr_miss_rate::total     0.666667                       # mshr miss rate for ReadCleanReq accesses
system.l2.ReadSharedReq_mshr_miss_rate::cpu0.data     0.831013                       # mshr miss rate for ReadSharedReq accesses
system.l2.ReadSharedReq_mshr_miss_rate::total     0.831013                       # mshr miss rate for ReadSharedReq accesses
system.l2.demand_mshr_miss_rate::cpu0.inst     0.666667                       # mshr miss rate for demand accesses
system.l2.demand_mshr_miss_rate::cpu0.data     0.828847                       # mshr miss rate for demand accesses
system.l2.demand_mshr_miss_rate::total       0.828845                       # mshr miss rate for demand accesses
system.l2.overall_mshr_miss_rate::cpu0.inst     0.666667                       # mshr miss rate for overall accesses
system.l2.overall_mshr_miss_rate::cpu0.data     0.828847                       # mshr miss rate for overall accesses
system.l2.overall_mshr_miss_rate::total      0.828845                       # mshr miss rate for overall accesses
system.l2.ReadExReq_avg_mshr_miss_latency::cpu0.data 91213.503650                       # average ReadExReq mshr miss latency
system.l2.ReadExReq_avg_mshr_miss_latency::total 91213.503650                       # average ReadExReq mshr miss latency
system.l2.ReadCleanReq_avg_mshr_miss_latency::cpu0.inst        92000                       # average ReadCleanReq mshr miss latency
system.l2.ReadCleanReq_avg_mshr_miss_latency::total        92000                       # average ReadCleanReq mshr miss latency
system.l2.ReadSharedReq_avg_mshr_miss_latency::cpu0.data 84944.242465                       # average ReadSharedReq mshr miss latency
system.l2.ReadSharedReq_avg_mshr_miss_latency::total 84944.242465                       # average ReadSharedReq mshr miss latency
system.l2.demand_avg_mshr_miss_latency::cpu0.inst        92000                       # average overall mshr miss latency
system.l2.demand_avg_mshr_miss_latency::cpu0.data 84953.151499                       # average overall mshr miss latency
system.l2.demand_avg_mshr_miss_latency::total 84953.224594                       # average overall mshr miss latency
system.l2.overall_avg_mshr_miss_latency::cpu0.inst        92000                       # average overall mshr miss latency
system.l2.overall_avg_mshr_miss_latency::cpu0.data 84953.151499                       # average overall mshr miss latency
system.l2.overall_avg_mshr_miss_latency::total 84953.224594                       # average overall mshr miss latency
system.membus.snoop_filter.tot_requests        385622                       # Total number of requests made to the snoop filter.
system.membus.snoop_filter.hit_single_requests       192814                       # Number of requests hitting in the snoop filter with a single holder of the requested data.
system.membus.snoop_filter.hit_multi_requests            0                       # Number of requests hitting in the snoop filter with multiple (>1) holders of the requested data.
system.membus.snoop_filter.tot_snoops               0                       # Total number of snoops made to the snoop filter.
system.membus.snoop_filter.hit_single_snoops            0                       # Number of snoops hitting in the snoop filter with a single holder of the requested data.
system.membus.snoop_filter.hit_multi_snoops            0                       # Number of snoops hitting in the snoop filter with multiple (>1) holders of the requested data.
system.membus.pwrStateResidencyTicks::UNDEFINED  15267344125                       # Cumulative time (in ticks) in various power states
system.membus.trans_dist::ReadResp             192539                       # Transaction distribution
system.membus.trans_dist::WritebackDirty          439                       # Transaction distribution
system.membus.trans_dist::CleanEvict           192368                       # Transaction distribution
system.membus.trans_dist::ReadExReq               274                       # Transaction distribution
system.membus.trans_dist::ReadExResp              274                       # Transaction distribution
system.membus.trans_dist::ReadSharedReq        192541                       # Transaction distribution
system.membus.pkt_count_system.l2.mem_side::system.mem_ctrls.port       578435                       # Packet count per connected master and slave (bytes)
system.membus.pkt_count_system.l2.mem_side::total       578435                       # Packet count per connected master and slave (bytes)
system.membus.pkt_count::total                 578435                       # Packet count per connected master and slave (bytes)
system.membus.pkt_size_system.l2.mem_side::system.mem_ctrls.port     12368128                       # Cumulative packet size per connected master and slave (bytes)
system.membus.pkt_size_system.l2.mem_side::total     12368128                       # Cumulative packet size per connected master and slave (bytes)
system.membus.pkt_size::total                12368128                       # Cumulative packet size per connected master and slave (bytes)
system.membus.snoops                                0                       # Total snoops (count)
system.membus.snoopTraffic                          0                       # Total snoop traffic (bytes)
system.membus.snoop_fanout::samples            192815                       # Request fanout histogram
system.membus.snoop_fanout::mean                    0                       # Request fanout histogram
system.membus.snoop_fanout::stdev                   0                       # Request fanout histogram
system.membus.snoop_fanout::underflows              0      0.00%      0.00% # Request fanout histogram
system.membus.snoop_fanout::0                  192815    100.00%    100.00% # Request fanout histogram
system.membus.snoop_fanout::1                       0      0.00%    100.00% # Request fanout histogram
system.membus.snoop_fanout::overflows               0      0.00%    100.00% # Request fanout histogram
system.membus.snoop_fanout::min_value               0                       # Request fanout histogram
system.membus.snoop_fanout::max_value               0                       # Request fanout histogram
system.membus.snoop_fanout::total              192815                       # Request fanout histogram
system.membus.reqLayer4.occupancy           457148500                       # Layer occupancy (ticks)
system.membus.reqLayer4.utilization               3.0                       # Layer utilization (%)
system.membus.respLayer1.occupancy         1042146750                       # Layer occupancy (ticks)
system.membus.respLayer1.utilization              6.8                       # Layer utilization (%)
system.tol2bus.snoop_filter.tot_requests       465261                       # Total number of requests made to the snoop filter.
system.tol2bus.snoop_filter.hit_single_requests       232628                       # Number of requests hitting in the snoop filter with a single holder of the requested data.
system.tol2bus.snoop_filter.hit_multi_requests          625                       # Number of requests hitting in the snoop filter with multiple (>1) holders of the requested data.
system.tol2bus.snoop_filter.tot_snoops             16                       # Total number of snoops made to the snoop filter.
system.tol2bus.snoop_filter.hit_single_snoops           15                       # Number of snoops hitting in the snoop filter with a single holder of the requested data.
system.tol2bus.snoop_filter.hit_multi_snoops            1                       # Number of snoops hitting in the snoop filter with multiple (>1) holders of the requested data.
system.tol2bus.pwrStateResidencyTicks::UNDEFINED  15267344125                       # Cumulative time (in ticks) in various power states
system.tol2bus.trans_dist::ReadResp            231694                       # Transaction distribution
system.tol2bus.trans_dist::WritebackDirty         2745                       # Transaction distribution
system.tol2bus.trans_dist::WritebackClean            3                       # Transaction distribution
system.tol2bus.trans_dist::CleanEvict          422704                       # Transaction distribution
system.tol2bus.trans_dist::ReadExReq              936                       # Transaction distribution
system.tol2bus.trans_dist::ReadExResp             936                       # Transaction distribution
system.tol2bus.trans_dist::ReadCleanReq             3                       # Transaction distribution
system.tol2bus.trans_dist::ReadSharedReq       231692                       # Transaction distribution
system.tol2bus.pkt_count_system.cpu0.icache.mem_side::system.l2.cpu_side            9                       # Packet count per connected master and slave (bytes)
system.tol2bus.pkt_count_system.cpu0.dcache.mem_side::system.l2.cpu_side       697882                       # Packet count per connected master and slave (bytes)
system.tol2bus.pkt_count::total                697891                       # Packet count per connected master and slave (bytes)
system.tol2bus.pkt_size_system.cpu0.icache.mem_side::system.l2.cpu_side          384                       # Cumulative packet size per connected master and slave (bytes)
system.tol2bus.pkt_size_system.cpu0.dcache.mem_side::system.l2.cpu_side     15035712                       # Cumulative packet size per connected master and slave (bytes)
system.tol2bus.pkt_size::total               15036096                       # Cumulative packet size per connected master and slave (bytes)
system.tol2bus.snoops                          192822                       # Total snoops (count)
system.tol2bus.snoopTraffic                     28096                       # Total snoop traffic (bytes)
system.tol2bus.snoop_fanout::samples           425453                       # Request fanout histogram
system.tol2bus.snoop_fanout::mean            0.001504                       # Request fanout histogram
system.tol2bus.snoop_fanout::stdev           0.038816                       # Request fanout histogram
system.tol2bus.snoop_fanout::underflows             0      0.00%      0.00% # Request fanout histogram
system.tol2bus.snoop_fanout::0                 424814     99.85%     99.85% # Request fanout histogram
system.tol2bus.snoop_fanout::1                    638      0.15%    100.00% # Request fanout histogram
system.tol2bus.snoop_fanout::2                      1      0.00%    100.00% # Request fanout histogram
system.tol2bus.snoop_fanout::3                      0      0.00%    100.00% # Request fanout histogram
system.tol2bus.snoop_fanout::4                      0      0.00%    100.00% # Request fanout histogram
system.tol2bus.snoop_fanout::5                      0      0.00%    100.00% # Request fanout histogram
system.tol2bus.snoop_fanout::6                      0      0.00%    100.00% # Request fanout histogram
system.tol2bus.snoop_fanout::7                      0      0.00%    100.00% # Request fanout histogram
system.tol2bus.snoop_fanout::8                      0      0.00%    100.00% # Request fanout histogram
system.tol2bus.snoop_fanout::overflows              0      0.00%    100.00% # Request fanout histogram
system.tol2bus.snoop_fanout::min_value              0                       # Request fanout histogram
system.tol2bus.snoop_fanout::max_value              2                       # Request fanout histogram
system.tol2bus.snoop_fanout::total             425453                       # Request fanout histogram
system.tol2bus.reqLayer0.occupancy          234939500                       # Layer occupancy (ticks)
system.tol2bus.reqLayer0.utilization              1.5                       # Layer utilization (%)
system.tol2bus.respLayer0.occupancy              4500                       # Layer occupancy (ticks)
system.tol2bus.respLayer0.utilization             0.0                       # Layer utilization (%)
system.tol2bus.respLayer1.occupancy         348940500                       # Layer occupancy (ticks)
system.tol2bus.respLayer1.utilization             2.3                       # Layer utilization (%)

---------- End Simulation Statistics   ----------
