
---------- Begin Simulation Statistics ----------
sim_seconds                                  0.015267                       # Number of seconds simulated
sim_ticks                                 15267344125                       # Number of ticks simulated
final_tick                               1068714088750                       # Number of ticks from beginning of simulation (restored from checkpoints and never reset)
sim_freq                                 1000000000000                       # Frequency of simulated ticks
host_inst_rate                               10771641                       # Simulator instruction rate (inst/s)
host_op_rate                                 19900557                       # Simulator op (including micro ops) rate (op/s)
host_tick_rate                               69839534                       # Simulator tick rate (ticks/s)
host_mem_usage                                2330124                       # Number of bytes of host memory used
host_seconds                                   218.61                       # Real time elapsed on the host
sim_insts                                  2354745641                       # Number of instructions simulated
sim_ops                                    4350381889                       # Number of ops (including micro ops) simulated
system.voltage_domain.voltage                       1                       # Voltage in Volts
system.clk_domain.clock                          1000                       # Clock period in ticks
system.mem_ctrls.pwrStateResidencyTicks::UNDEFINED  15267344125                       # Cumulative time (in ticks) in various power states
system.mem_ctrls.bytes_read::cpu0.data         911296                       # Number of bytes read from this memory
system.mem_ctrls.bytes_read::total             911296                       # Number of bytes read from this memory
system.mem_ctrls.bytes_written::writebacks       858624                       # Number of bytes written to this memory
system.mem_ctrls.bytes_written::total          858624                       # Number of bytes written to this memory
system.mem_ctrls.num_reads::cpu0.data           14239                       # Number of read requests responded to by this memory
system.mem_ctrls.num_reads::total               14239                       # Number of read requests responded to by this memory
system.mem_ctrls.num_writes::writebacks         13416                       # Number of write requests responded to by this memory
system.mem_ctrls.num_writes::total              13416                       # Number of write requests responded to by this memory
system.mem_ctrls.bw_read::cpu0.data          59689229                       # Total read bandwidth from this memory (bytes/s)
system.mem_ctrls.bw_read::total              59689229                       # Total read bandwidth from this memory (bytes/s)
system.mem_ctrls.bw_write::writebacks        56239251                       # Write bandwidth from this memory (bytes/s)
system.mem_ctrls.bw_write::total             56239251                       # Write bandwidth from this memory (bytes/s)
system.mem_ctrls.bw_total::writebacks        56239251                       # Total bandwidth to/from this memory (bytes/s)
system.mem_ctrls.bw_total::cpu0.data         59689229                       # Total bandwidth to/from this memory (bytes/s)
system.mem_ctrls.bw_total::total            115928480                       # Total bandwidth to/from this memory (bytes/s)
system.mem_ctrls.readReqs                       14239                       # Number of read requests accepted
system.mem_ctrls.writeReqs                      13416                       # Number of write requests accepted
system.mem_ctrls.readBursts                     14239                       # Number of DRAM read bursts, including those serviced by the write queue
system.mem_ctrls.writeBursts                    13416                       # Number of DRAM write bursts, including those merged in the write queue
system.mem_ctrls.bytesReadDRAM                 911296                       # Total number of bytes read from DRAM
system.mem_ctrls.bytesReadWrQ                       0                       # Total number of bytes read from write queue
system.mem_ctrls.bytesWritten                  859200                       # Total number of bytes written to DRAM
system.mem_ctrls.bytesReadSys                  911296                       # Total read bytes from the system interface side
system.mem_ctrls.bytesWrittenSys               858624                       # Total written bytes from the system interface side
system.mem_ctrls.servicedByWrQ                      0                       # Number of DRAM read bursts serviced by the write queue
system.mem_ctrls.mergedWrBursts                     0                       # Number of DRAM write bursts merged with an existing one
system.mem_ctrls.neitherReadNorWriteReqs            0                       # Number of requests that are neither read nor write
system.mem_ctrls.perBankRdBursts::0               909                       # Per bank write bursts
system.mem_ctrls.perBankRdBursts::1               896                       # Per bank write bursts
system.mem_ctrls.perBankRdBursts::2               809                       # Per bank write bursts
system.mem_ctrls.perBankRdBursts::3               768                       # Per bank write bursts
system.mem_ctrls.perBankRdBursts::4               776                       # Per bank write bursts
system.mem_ctrls.perBankRdBursts::5               805                       # Per bank write bursts
system.mem_ctrls.perBankRdBursts::6               768                       # Per bank write bursts
system.mem_ctrls.perBankRdBursts::7               768                       # Per bank write bursts
system.mem_ctrls.perBankRdBursts::8               768                       # Per bank write bursts
system.mem_ctrls.perBankRdBursts::9               956                       # Per bank write bursts
system.mem_ctrls.perBankRdBursts::10             1047                       # Per bank write bursts
system.mem_ctrls.perBankRdBursts::11             1024                       # Per bank write bursts
system.mem_ctrls.perBankRdBursts::12              973                       # Per bank write bursts
system.mem_ctrls.perBankRdBursts::13             1024                       # Per bank write bursts
system.mem_ctrls.perBankRdBursts::14             1024                       # Per bank write bursts
system.mem_ctrls.perBankRdBursts::15              924                       # Per bank write bursts
system.mem_ctrls.perBankWrBursts::0               909                       # Per bank write bursts
system.mem_ctrls.perBankWrBursts::1               896                       # Per bank write bursts
system.mem_ctrls.perBankWrBursts::2               808                       # Per bank write bursts
system.mem_ctrls.perBankWrBursts::3               768                       # Per bank write bursts
system.mem_ctrls.perBankWrBursts::4               756                       # Per bank write bursts
system.mem_ctrls.perBankWrBursts::5               783                       # Per bank write bursts
system.mem_ctrls.perBankWrBursts::6               767                       # Per bank write bursts
system.mem_ctrls.perBankWrBursts::7               782                       # Per bank write bursts
system.mem_ctrls.perBankWrBursts::8               770                       # Per bank write bursts
system.mem_ctrls.perBankWrBursts::9               854                       # Per bank write bursts
system.mem_ctrls.perBankWrBursts::10              890                       # Per bank write bursts
system.mem_ctrls.perBankWrBursts::11              896                       # Per bank write bursts
system.mem_ctrls.perBankWrBursts::12              846                       # Per bank write bursts
system.mem_ctrls.perBankWrBursts::13              896                       # Per bank write bursts
system.mem_ctrls.perBankWrBursts::14              926                       # Per bank write bursts
system.mem_ctrls.perBankWrBursts::15              878                       # Per bank write bursts
system.mem_ctrls.numRdRetry                         0                       # Number of times read queue was full causing retry
system.mem_ctrls.numWrRetry                         0                       # Number of times write queue was full causing retry
system.mem_ctrls.totGap                   15267071000                       # Total gap between requests
system.mem_ctrls.readPktSize::0                     0                       # Read request sizes (log2)
system.mem_ctrls.readPktSize::1                     0                       # Read request sizes (log2)
system.mem_ctrls.readPktSize::2                     0                       # Read request sizes (log2)
system.mem_ctrls.readPktSize::3                     0                       # Read request sizes (log2)
system.mem_ctrls.readPktSize::4                     0                       # Read request sizes (log2)
system.mem_ctrls.readPktSize::5                     0                       # Read request sizes (log2)
system.mem_ctrls.readPktSize::6                 14239                       # Read request sizes (log2)
system.mem_ctrls.writePktSize::0                    0                       # Write request sizes (log2)
system.mem_ctrls.writePktSize::1                    0                       # Write request sizes (log2)
system.mem_ctrls.writePktSize::2                    0                       # Write request sizes (log2)
system.mem_ctrls.writePktSize::3                    0                       # Write request sizes (log2)
system.mem_ctrls.writePktSize::4                    0                       # Write request sizes (log2)
system.mem_ctrls.writePktSize::5                    0                       # Write request sizes (log2)
system.mem_ctrls.writePktSize::6                13416                       # Write request sizes (log2)
system.mem_ctrls.rdQLenPdf::0                   14239                       # What read queue length does an incoming req see
system.mem_ctrls.rdQLenPdf::1                       0                       # What read queue length does an incoming req see
system.mem_ctrls.rdQLenPdf::2                       0                       # What read queue length does an incoming req see
system.mem_ctrls.rdQLenPdf::3                       0                       # What read queue length does an incoming req see
system.mem_ctrls.rdQLenPdf::4                       0                       # What read queue length does an incoming req see
system.mem_ctrls.rdQLenPdf::5                       0                       # What read queue length does an incoming req see
system.mem_ctrls.rdQLenPdf::6                       0                       # What read queue length does an incoming req see
system.mem_ctrls.rdQLenPdf::7                       0                       # What read queue length does an incoming req see
system.mem_ctrls.rdQLenPdf::8                       0                       # What read queue length does an incoming req see
system.mem_ctrls.rdQLenPdf::9                       0                       # What read queue length does an incoming req see
system.mem_ctrls.rdQLenPdf::10                      0                       # What read queue length does an incoming req see
system.mem_ctrls.rdQLenPdf::11                      0                       # What read queue length does an incoming req see
system.mem_ctrls.rdQLenPdf::12                      0                       # What read queue length does an incoming req see
system.mem_ctrls.rdQLenPdf::13                      0                       # What read queue length does an incoming req see
system.mem_ctrls.rdQLenPdf::14                      0                       # What read queue length does an incoming req see
system.mem_ctrls.rdQLenPdf::15                      0                       # What read queue length does an incoming req see
system.mem_ctrls.rdQLenPdf::16                      0                       # What read queue length does an incoming req see
system.mem_ctrls.rdQLenPdf::17                      0                       # What read queue length does an incoming req see
system.mem_ctrls.rdQLenPdf::18                      0                       # What read queue length does an incoming req see
system.mem_ctrls.rdQLenPdf::19                      0                       # What read queue length does an incoming req see
system.mem_ctrls.rdQLenPdf::20                      0                       # What read queue length does an incoming req see
system.mem_ctrls.rdQLenPdf::21                      0                       # What read queue length does an incoming req see
system.mem_ctrls.rdQLenPdf::22                      0                       # What read queue length does an incoming req see
system.mem_ctrls.rdQLenPdf::23                      0                       # What read queue length does an incoming req see
system.mem_ctrls.rdQLenPdf::24                      0                       # What read queue length does an incoming req see
system.mem_ctrls.rdQLenPdf::25                      0                       # What read queue length does an incoming req see
system.mem_ctrls.rdQLenPdf::26                      0                       # What read queue length does an incoming req see
system.mem_ctrls.rdQLenPdf::27                      0                       # What read queue length does an incoming req see
system.mem_ctrls.rdQLenPdf::28                      0                       # What read queue length does an incoming req see
system.mem_ctrls.rdQLenPdf::29                      0                       # What read queue length does an incoming req see
system.mem_ctrls.rdQLenPdf::30                      0                       # What read queue length does an incoming req see
system.mem_ctrls.rdQLenPdf::31                      0                       # What read queue length does an incoming req see
system.mem_ctrls.wrQLenPdf::0                       0                       # What write queue length does an incoming req see
system.mem_ctrls.wrQLenPdf::1                       0                       # What write queue length does an incoming req see
system.mem_ctrls.wrQLenPdf::2                       0                       # What write queue length does an incoming req see
system.mem_ctrls.wrQLenPdf::3                       0                       # What write queue length does an incoming req see
system.mem_ctrls.wrQLenPdf::4                       0                       # What write queue length does an incoming req see
system.mem_ctrls.wrQLenPdf::5                       0                       # What write queue length does an incoming req see
system.mem_ctrls.wrQLenPdf::6                       0                       # What write queue length does an incoming req see
system.mem_ctrls.wrQLenPdf::7                       0                       # What write queue length does an incoming req see
system.mem_ctrls.wrQLenPdf::8                       0                       # What write queue length does an incoming req see
system.mem_ctrls.wrQLenPdf::9                       0                       # What write queue length does an incoming req see
system.mem_ctrls.wrQLenPdf::10                      0                       # What write queue length does an incoming req see
system.mem_ctrls.wrQLenPdf::11                      0                       # What write queue length does an incoming req see
system.mem_ctrls.wrQLenPdf::12                      0                       # What write queue length does an incoming req see
system.mem_ctrls.wrQLenPdf::13                      0                       # What write queue length does an incoming req see
system.mem_ctrls.wrQLenPdf::14                      0                       # What write queue length does an incoming req see
system.mem_ctrls.wrQLenPdf::15                    728                       # What write queue length does an incoming req see
system.mem_ctrls.wrQLenPdf::16                    729                       # What write queue length does an incoming req see
system.mem_ctrls.wrQLenPdf::17                    748                       # What write queue length does an incoming req see
system.mem_ctrls.wrQLenPdf::18                    748                       # What write queue length does an incoming req see
system.mem_ctrls.wrQLenPdf::19                    748                       # What write queue length does an incoming req see
system.mem_ctrls.wrQLenPdf::20                    748                       # What write queue length does an incoming req see
system.mem_ctrls.wrQLenPdf::21                    748                       # What write queue length does an incoming req see
system.mem_ctrls.wrQLenPdf::22                    747                       # What write queue length does an incoming req see
system.mem_ctrls.wrQLenPdf::23                    747                       # What write queue length does an incoming req see
system.mem_ctrls.wrQLenPdf::24                    747                       # What write queue length does an incoming req see
system.mem_ctrls.wrQLenPdf::25                    747                       # What write queue length does an incoming req see
system.mem_ctrls.wrQLenPdf::26                    747                       # What write queue length does an incoming req see
system.mem_ctrls.wrQLenPdf::27                    747                       # What write queue length does an incoming req see
system.mem_ctrls.wrQLenPdf::28                    747                       # What write queue length does an incoming req see
system.mem_ctrls.wrQLenPdf::29                    747                       # What write queue length does an incoming req see
system.mem_ctrls.wrQLenPdf::30                    747                       # What write queue length does an incoming req see
system.mem_ctrls.wrQLenPdf::31                    748                       # What write queue length does an incoming req see
system.mem_ctrls.wrQLenPdf::32                    748                       # What write queue length does an incoming req see
system.mem_ctrls.wrQLenPdf::33                      0                       # What write queue length does an incoming req see
system.mem_ctrls.wrQLenPdf::34                      0                       # What write queue length does an incoming req see
system.mem_ctrls.wrQLenPdf::35                      0                       # What write queue length does an incoming req see
system.mem_ctrls.wrQLenPdf::36                      0                       # What write queue length does an incoming req see
system.mem_ctrls.wrQLenPdf::37                      0                       # What write queue length does an incoming req see
system.mem_ctrls.wrQLenPdf::38                      0                       # What write queue length does an incoming req see
system.mem_ctrls.wrQLenPdf::39                      0                       # What write queue length does an incoming req see
system.mem_ctrls.wrQLenPdf::40                      0                       # What write queue length does an incoming req see
system.mem_ctrls.wrQLenPdf::41                      0                       # What write queue length does an incoming req see
system.mem_ctrls.wrQLenPdf::42                      0                       # What write queue length does an incoming req see
system.mem_ctrls.wrQLenPdf::43                      0                       # What write queue length does an incoming req see
system.mem_ctrls.wrQLenPdf::44                      0                       # What write queue length does an incoming req see
system.mem_ctrls.wrQLenPdf::45                      0                       # What write queue length does an incoming req see
system.mem_ctrls.wrQLenPdf::46                      0                       # What write queue length does an incoming req see
system.mem_ctrls.wrQLenPdf::47                      0                       # What write queue length does an incoming req see
system.mem_ctrls.wrQLenPdf::48                      0                       # What write queue length does an incoming req see
system.mem_ctrls.wrQLenPdf::49                      0                       # What write queue length does an incoming req see
system.mem_ctrls.wrQLenPdf::50                      0                       # What write queue length does an incoming req see
system.mem_ctrls.wrQLenPdf::51                      0                       # What write queue length does an incoming req see
system.mem_ctrls.wrQLenPdf::52                      0                       # What write queue length does an incoming req see
system.mem_ctrls.wrQLenPdf::53                      0                       # What write queue length does an incoming req see
system.mem_ctrls.wrQLenPdf::54                      0                       # What write queue length does an incoming req see
system.mem_ctrls.wrQLenPdf::55                      0                       # What write queue length does an incoming req see
system.mem_ctrls.wrQLenPdf::56                      0                       # What write queue length does an incoming req see
system.mem_ctrls.wrQLenPdf::57                      0                       # What write queue length does an incoming req see
system.mem_ctrls.wrQLenPdf::58                      0                       # What write queue length does an incoming req see
system.mem_ctrls.wrQLenPdf::59                      0                       # What write queue length does an incoming req see
system.mem_ctrls.wrQLenPdf::60                      0                       # What write queue length does an incoming req see
system.mem_ctrls.wrQLenPdf::61                      0                       # What write queue length does an incoming req see
system.mem_ctrls.wrQLenPdf::62                      0                       # What write queue length does an incoming req see
system.mem_ctrls.wrQLenPdf::63                      0                       # What write queue length does an incoming req see
system.mem_ctrls.bytesPerActivate::samples         5879                       # Bytes accessed per row activation
system.mem_ctrls.bytesPerActivate::mean    301.101548                       # Bytes accessed per row activation
system.mem_ctrls.bytesPerActivate::gmean   186.839477                       # Bytes accessed per row activation
system.mem_ctrls.bytesPerActivate::stdev   295.280261                       # Bytes accessed per row activation
system.mem_ctrls.bytesPerActivate::0-127         2300     39.12%     39.12% # Bytes accessed per row activation
system.mem_ctrls.bytesPerActivate::128-255          815     13.86%     52.99% # Bytes accessed per row activation
system.mem_ctrls.bytesPerActivate::256-383          555      9.44%     62.43% # Bytes accessed per row activation
system.mem_ctrls.bytesPerActivate::384-511         1445     24.58%     87.00% # Bytes accessed per row activation
system.mem_ctrls.bytesPerActivate::512-639           41      0.70%     87.70% # Bytes accessed per row activation
system.mem_ctrls.bytesPerActivate::640-767           36      0.61%     88.31% # Bytes accessed per row activation
system.mem_ctrls.bytesPerActivate::768-895           50      0.85%     89.16% # Bytes accessed per row activation
system.mem_ctrls.bytesPerActivate::896-1023           92      1.56%     90.73% # Bytes accessed per row activation
system.mem_ctrls.bytesPerActivate::1024-1151          545      9.27%    100.00% # Bytes accessed per row activation
system.mem_ctrls.bytesPerActivate::total         5879                       # Bytes accessed per row activation
system.mem_ctrls.rdPerTurnAround::samples          748                       # Reads before turning the bus around for writes
system.mem_ctrls.rdPerTurnAround::mean      19.049465                       # Reads before turning the bus around for writes
system.mem_ctrls.rdPerTurnAround::gmean     18.525677                       # Reads before turning the bus around for writes
system.mem_ctrls.rdPerTurnAround::stdev      9.788607                       # Reads before turning the bus around for writes
system.mem_ctrls.rdPerTurnAround::16-23           729     97.46%     97.46% # Reads before turning the bus around for writes
system.mem_ctrls.rdPerTurnAround::24-31            12      1.60%     99.06% # Reads before turning the bus around for writes
system.mem_ctrls.rdPerTurnAround::32-39             2      0.27%     99.33% # Reads before turning the bus around for writes
system.mem_ctrls.rdPerTurnAround::64-71             2      0.27%     99.60% # Reads before turning the bus around for writes
system.mem_ctrls.rdPerTurnAround::96-103            1      0.13%     99.73% # Reads before turning the bus around for writes
system.mem_ctrls.rdPerTurnAround::168-175            1      0.13%     99.87% # Reads before turning the bus around for writes
system.mem_ctrls.rdPerTurnAround::200-207            1      0.13%    100.00% # Reads before turning the bus around for writes
system.mem_ctrls.rdPerTurnAround::total           748                       # Reads before turning the bus around for writes
system.mem_ctrls.wrPerTurnAround::samples          748                       # Writes before turning the bus around for reads
system.mem_ctrls.wrPerTurnAround::mean      17.947861                       # Writes before turning the bus around for reads
system.mem_ctrls.wrPerTurnAround::gmean     17.944856                       # Writes before turning the bus around for reads
system.mem_ctrls.wrPerTurnAround::stdev      0.316792                       # Writes before turning the bus around for reads
system.mem_ctrls.wrPerTurnAround::16               19      2.54%      2.54% # Writes before turning the bus around for reads
system.mem_ctrls.wrPerTurnAround::17                1      0.13%      2.67% # Writes before turning the bus around for reads
system.mem_ctrls.wrPerTurnAround::18              728     97.33%    100.00% # Writes before turning the bus around for reads
system.mem_ctrls.wrPerTurnAround::total           748                       # Writes before turning the bus around for reads
system.mem_ctrls.totQLat                    355493500                       # Total ticks spent queuing
system.mem_ctrls.totMemAccLat               622474750                       # Total ticks spent from burst creation until serviced by the DRAM
system.mem_ctrls.totBusLat                   71195000                       # Total ticks spent in databus transfers
system.mem_ctrls.avgQLat                     24966.18                       # Average queueing delay per DRAM burst
system.mem_ctrls.avgBusLat                    5000.00                       # Average bus latency per DRAM burst
system.mem_ctrls.avgMemAccLat                43716.18                       # Average memory access latency per DRAM burst
system.mem_ctrls.avgRdBW                        59.69                       # Average DRAM read bandwidth in MiByte/s
system.mem_ctrls.avgWrBW                        56.28                       # Average achieved write bandwidth in MiByte/s
system.mem_ctrls.avgRdBWSys                     59.69                       # Average system read bandwidth in MiByte/s
system.mem_ctrls.avgWrBWSys                     56.24                       # Average system write bandwidth in MiByte/s
system.mem_ctrls.peakBW                      12800.00                       # Theoretical peak bandwidth in MiByte/s
system.mem_ctrls.busUtil                         0.91                       # Data bus utilization in percentage
system.mem_ctrls.busUtilRead                     0.47                       # Data bus utilization in percentage for reads
system.mem_ctrls.busUtilWrite                    0.44                       # Data bus utilization in percentage for writes
system.mem_ctrls.avgRdQLen                       1.00                       # Average read queue length when enqueuing
system.mem_ctrls.avgWrQLen                      24.54                       # Average write queue length when enqueuing
system.mem_ctrls.readRowHits                    10355                       # Number of row buffer hits during reads
system.mem_ctrls.writeRowHits                   11430                       # Number of row buffer hits during writes
system.mem_ctrls.readRowHitRate                 72.72                       # Row buffer hit rate for reads
system.mem_ctrls.writeRowHitRate                85.20                       # Row buffer hit rate for writes
system.mem_ctrls.avgGap                     552054.64                       # Average gap between requests
system.mem_ctrls.pageHitRate                    78.77                       # Row buffer hit rate, read and write combined
system.mem_ctrls_0.actEnergy                 17957100                       # Energy for activate commands per rank (pJ)
system.mem_ctrls_0.preEnergy                  9544425                       # Energy for precharge commands per rank (pJ)
system.mem_ctrls_0.readEnergy                46402860                       # Energy for read commands per rank (pJ)
system.mem_ctrls_0.writeEnergy               33768180                       # Energy for write commands per rank (pJ)
system.mem_ctrls_0.refreshEnergy         1041814800.000000                       # Energy for refresh commands per rank (pJ)
system.mem_ctrls_0.actBackEnergy            582786240                       # Energy for active background per rank (pJ)
system.mem_ctrls_0.preBackEnergy             53724960                       # Energy for precharge background per rank (pJ)
system.mem_ctrls_0.actPowerDownEnergy      3170586240                       # Energy for active power-down per rank (pJ)
system.mem_ctrls_0.prePowerDownEnergy      1065479520                       # Energy for precharge power-down per rank (pJ)
system.mem_ctrls_0.selfRefreshEnergy       1145484420                       # Energy for self refresh per rank (pJ)
system.mem_ctrls_0.totalEnergy             7167629025                       # Total energy per rank (pJ)
system.mem_ctrls_0.averagePower            469.474518                       # Core power per rank (mW)
system.mem_ctrls_0.totalIdleTime          13843521375                       # Total Idle time Per DRAM Rank
system.mem_ctrls_0.memoryStateTime::IDLE     91925750                       # Time in different power states
system.mem_ctrls_0.memoryStateTime::REF     442416000                       # Time in different power states
system.mem_ctrls_0.memoryStateTime::SREF   4121471125                       # Time in different power states
system.mem_ctrls_0.memoryStateTime::PRE_PDN   2774759750                       # Time in different power states
system.mem_ctrls_0.memoryStateTime::ACT     883603750                       # Time in different power states
system.mem_ctrls_0.memoryStateTime::ACT_PDN   6953167750                       # Time in different power states
system.mem_ctrls_1.actEnergy                 24018960                       # Energy for activate commands per rank (pJ)
system.mem_ctrls_1.preEnergy                 12766380                       # Energy for precharge commands per rank (pJ)
system.mem_ctrls_1.readEnergy                55263600                       # Energy for read commands per rank (pJ)
system.mem_ctrls_1.writeEnergy               36310320                       # Energy for write commands per rank (pJ)
system.mem_ctrls_1.refreshEnergy         1220060400.000000                       # Energy for refresh commands per rank (pJ)
system.mem_ctrls_1.actBackEnergy            738561540                       # Energy for active background per rank (pJ)
system.mem_ctrls_1.preBackEnergy             53856960                       # Energy for precharge background per rank (pJ)
system.mem_ctrls_1.actPowerDownEnergy      3805512660                       # Energy for active power-down per rank (pJ)
system.mem_ctrls_1.prePowerDownEnergy      1243672320                       # Energy for precharge power-down per rank (pJ)
system.mem_ctrls_1.selfRefreshEnergy        622842780                       # Energy for self refresh per rank (pJ)
system.mem_ctrls_1.totalEnergy             7813133460                       # Total energy per rank (pJ)
system.mem_ctrls_1.averagePower            511.754592                       # Core power per rank (mW)
system.mem_ctrls_1.totalIdleTime          13506376625                       # Total Idle time Per DRAM Rank
system.mem_ctrls_1.memoryStateTime::IDLE     87190000                       # Time in different power states
system.mem_ctrls_1.memoryStateTime::REF     517900000                       # Time in different power states
system.mem_ctrls_1.memoryStateTime::SREF   1922697500                       # Time in different power states
system.mem_ctrls_1.memoryStateTime::PRE_PDN   3238605750                       # Time in different power states
system.mem_ctrls_1.memoryStateTime::ACT    1155448500                       # Time in different power states
system.mem_ctrls_1.memoryStateTime::ACT_PDN   8345502375                       # Time in different power states
system.pwrStateResidencyTicks::UNDEFINED  15267344125                       # Cumulative time (in ticks) in various power states
system.cpu0.branchPred.lookups                5265157                       # Number of BP lookups
system.cpu0.branchPred.condPredicted          5265157                       # Number of conditional branches predicted
system.cpu0.branchPred.condIncorrect           108668                       # Number of conditional branches incorrect
system.cpu0.branchPred.BTBLookups             4071621                       # Number of BTB lookups
system.cpu0.branchPred.BTBHits                      0                       # Number of BTB hits
system.cpu0.branchPred.BTBCorrect                   0                       # Number of correct BTB predictions (this stat may not work properly.
system.cpu0.branchPred.BTBHitPct             0.000000                       # BTB Hit Percentage
system.cpu0.branchPred.usedRAS                 733275                       # Number of times the RAS was used to get a target.
system.cpu0.branchPred.RASInCorrect               387                       # Number of incorrect RAS predictions.
system.cpu0.branchPred.indirectLookups        4071621                       # Number of indirect predictor lookups.
system.cpu0.branchPred.indirectHits           2539624                       # Number of indirect target hits.
system.cpu0.branchPred.indirectMisses         1531997                       # Number of indirect misses.
system.cpu0.branchPredindirectMispredicted          212                       # Number of mispredicted indirect branches.
system.cpu_voltage_domain.voltage                   1                       # Voltage in Volts
system.cpu_clk_domain.clock                       500                       # Clock period in ticks
system.cpu0.dtb.walker.pwrStateResidencyTicks::UNDEFINED  15267344125                       # Cumulative time (in ticks) in various power states
system.cpu0.dtb.rdAccesses                    8919439                       # TLB accesses on read requests
system.cpu0.dtb.wrAccesses                    2103064                       # TLB accesses on write requests
system.cpu0.dtb.rdMisses                          886                       # TLB misses on read requests
system.cpu0.dtb.wrMisses                            0                       # TLB misses on write requests
system.cpu0.apic_clk_domain.clock                8000                       # Clock period in ticks
system.cpu0.interrupts.pwrStateResidencyTicks::UNDEFINED  15267344125                       # Cumulative time (in ticks) in various power states
system.cpu0.itb.walker.pwrStateResidencyTicks::UNDEFINED  15267344125                       # Cumulative time (in ticks) in various power states
system.cpu0.itb.rdAccesses                          0                       # TLB accesses on read requests
system.cpu0.itb.wrAccesses                    6275821                       # TLB accesses on write requests
system.cpu0.itb.rdMisses                            0                       # TLB misses on read requests
system.cpu0.itb.wrMisses                           38                       # TLB misses on write requests
system.cpu0.workload.numSyscalls                    0                       # Number of system calls
system.cpu0.pwrStateResidencyTicks::ON    15267344125                       # Cumulative time (in ticks) in various power states
system.cpu0.numCycles                        30534688                       # number of cpu cycles simulated
system.cpu0.numWorkItemsStarted                     0                       # number of work items this cpu started
system.cpu0.numWorkItemsCompleted                   0                       # number of work items this cpu completed
system.cpu0.fetch.icacheStallCycles           6336928                       # Number of cycles fetch is stalled on an Icache miss
system.cpu0.fetch.Insts                      46399359                       # Number of instructions fetch has processed
system.cpu0.fetch.Branches                    5265157                       # Number of branches that fetch encountered
system.cpu0.fetch.predictedBranches           3272899                       # Number of branches that fetch has predicted taken
system.cpu0.fetch.Cycles                     24088823                       # Number of cycles fetch has run and was not squashing or blocked
system.cpu0.fetch.SquashCycles                 217544                       # Number of cycles fetch has spent squashing
system.cpu0.fetch.MiscStallCycles                   3                       # Number of cycles fetch has spent waiting on interrupts, or bad addresses, or out of MSHRs
system.cpu0.fetch.PendingTrapStallCycles          162                       # Number of stall cycles due to pending traps
system.cpu0.fetch.CacheLines                  6275783                       # Number of cache lines fetched
system.cpu0.fetch.IcacheSquashes                47592                       # Number of outstanding Icache misses that were squashed
system.cpu0.fetch.rateDist::samples          30534688                       # Number of instructions fetched each cycle (Total)
system.cpu0.fetch.rateDist::mean             2.656268                       # Number of instructions fetched each cycle (Total)
system.cpu0.fetch.rateDist::stdev            3.365229                       # Number of instructions fetched each cycle (Total)
system.cpu0.fetch.rateDist::underflows              0      0.00%      0.00% # Number of instructions fetched each cycle (Total)
system.cpu0.fetch.rateDist::0                16757231     54.88%     54.88% # Number of instructions fetched each cycle (Total)
system.cpu0.fetch.rateDist::1                  715241      2.34%     57.22% # Number of instructions fetched each cycle (Total)
system.cpu0.fetch.rateDist::2                 1663898      5.45%     62.67% # Number of instructions fetched each cycle (Total)
system.cpu0.fetch.rateDist::3                  677589      2.22%     64.89% # Number of instructions fetched each cycle (Total)
system.cpu0.fetch.rateDist::4                 1006738      3.30%     68.19% # Number of instructions fetched each cycle (Total)
system.cpu0.fetch.rateDist::5                 1568882      5.14%     73.33% # Number of instructions fetched each cycle (Total)
system.cpu0.fetch.rateDist::6                  576669      1.89%     75.21% # Number of instructions fetched each cycle (Total)
system.cpu0.fetch.rateDist::7                  846371      2.77%     77.99% # Number of instructions fetched each cycle (Total)
system.cpu0.fetch.rateDist::8                 6722069     22.01%    100.00% # Number of instructions fetched each cycle (Total)
system.cpu0.fetch.rateDist::overflows               0      0.00%    100.00% # Number of instructions fetched each cycle (Total)
system.cpu0.fetch.rateDist::min_value               0                       # Number of instructions fetched each cycle (Total)
system.cpu0.fetch.rateDist::max_value               8                       # Number of instructions fetched each cycle (Total)
system.cpu0.fetch.rateDist::total            30534688                       # Number of instructions fetched each cycle (Total)
system.cpu0.fetch.branchRate                 0.172432                       # Number of branch fetches per cycle
system.cpu0.fetch.rate                       1.519562                       # Number of inst fetches per cycle
system.cpu0.decode.IdleCycles                 4116512                       # Number of cycles decode is idle
system.cpu0.decode.BlockedCycles             15763703                       # Number of cycles decode is blocked
system.cpu0.decode.RunCycles                  6187791                       # Number of cycles decode is running
system.cpu0.decode.UnblockCycles              4357910                       # Number of cycles decode is unblocking
system.cpu0.decode.SquashCycles                108772                       # Number of cycles decode is squashing
system.cpu0.decode.DecodedInsts              77633091                       # Number of instructions handled by decode
system.cpu0.rename.SquashCycles                108772                       # Number of cycles rename is squashing
system.cpu0.rename.IdleCycles                 5826545                       # Number of cycles rename is idle
system.cpu0.rename.BlockCycles                5678835                       # Number of cycles rename is blocking
system.cpu0.rename.serializeStallCycles            26                       # count of cycles rename stalled for serializing inst
system.cpu0.rename.RunCycles                  8777681                       # Number of cycles rename is running
system.cpu0.rename.UnblockCycles             10142829                       # Number of cycles rename is unblocking
system.cpu0.rename.RenamedInsts              77083413                       # Number of instructions processed by rename
system.cpu0.rename.ROBFullEvents               210363                       # Number of times rename has blocked due to ROB full
system.cpu0.rename.IQFullEvents               9072550                       # Number of times rename has blocked due to IQ full
system.cpu0.rename.RenamedOperands           82889235                       # Number of destination operands rename has renamed
system.cpu0.rename.RenameLookups            183128594                       # Number of register rename lookups that rename has made
system.cpu0.rename.int_rename_lookups        60345033                       # Number of integer rename lookups
system.cpu0.rename.fp_rename_lookups         75036839                       # Number of floating rename lookups
system.cpu0.rename.CommittedMaps             70492837                       # Number of HB maps that are committed
system.cpu0.rename.UndoneMaps                12396329                       # Number of HB maps that are undone due to squashing
system.cpu0.rename.serializingInsts                14                       # count of serializing insts renamed
system.cpu0.rename.tempSerializingInsts            14                       # count of temporary serializing insts renamed
system.cpu0.rename.skidInsts                 23341045                       # count of insts added to the skid buffer
system.cpu0.memDep0.insertedLoads             9506000                       # Number of loads inserted to the mem dependence unit.
system.cpu0.memDep0.insertedStores            2108277                       # Number of stores inserted to the mem dependence unit.
system.cpu0.memDep0.conflictingLoads           426388                       # Number of conflicting loads.
system.cpu0.memDep0.conflictingStores          110450                       # Number of conflicting stores.
system.cpu0.iq.iqInstsAdded                  76427304                       # Number of instructions added to the IQ (excludes non-spec)
system.cpu0.iq.iqNonSpecInstsAdded                  8                       # Number of non-speculative instructions added to the IQ
system.cpu0.iq.iqInstsIssued                 70797533                       # Number of instructions issued
system.cpu0.iq.iqSquashedInstsIssued              110                       # Number of squashed instructions issued
system.cpu0.iq.iqSquashedInstsExamined       10544232                       # Number of squashed instructions iterated over during squash; mainly for profiling
system.cpu0.iq.iqSquashedOperandsExamined     15193545                       # Number of squashed operands that are examined and possibly removed from graph
system.cpu0.iq.iqSquashedNonSpecRemoved             8                       # Number of squashed non-spec instructions that were removed
system.cpu0.iq.issued_per_cycle::samples     30534688                       # Number of insts issued each cycle
system.cpu0.iq.issued_per_cycle::mean        2.318594                       # Number of insts issued each cycle
system.cpu0.iq.issued_per_cycle::stdev       1.960545                       # Number of insts issued each cycle
system.cpu0.iq.issued_per_cycle::underflows            0      0.00%      0.00% # Number of insts issued each cycle
system.cpu0.iq.issued_per_cycle::0            6362369     20.84%     20.84% # Number of insts issued each cycle
system.cpu0.iq.issued_per_cycle::1            6077130     19.90%     40.74% # Number of insts issued each cycle
system.cpu0.iq.issued_per_cycle::2            5663419     18.55%     59.29% # Number of insts issued each cycle
system.cpu0.iq.issued_per_cycle::3            4861341     15.92%     75.21% # Number of insts issued each cycle
system.cpu0.iq.issued_per_cycle::4            2980222      9.76%     84.97% # Number of insts issued each cycle
system.cpu0.iq.issued_per_cycle::5            1978047      6.48%     91.45% # Number of insts issued each cycle
system.cpu0.iq.issued_per_cycle::6            1602531      5.25%     96.69% # Number of insts issued each cycle
system.cpu0.iq.issued_per_cycle::7             693799      2.27%     98.97% # Number of insts issued each cycle
system.cpu0.iq.issued_per_cycle::8             315830      1.03%    100.00% # Number of insts issued each cycle
system.cpu0.iq.issued_per_cycle::overflows            0      0.00%    100.00% # Number of insts issued each cycle
system.cpu0.iq.issued_per_cycle::min_value            0                       # Number of insts issued each cycle
system.cpu0.iq.issued_per_cycle::max_value            8                       # Number of insts issued each cycle
system.cpu0.iq.issued_per_cycle::total       30534688                       # Number of insts issued each cycle
system.cpu0.iq.fu_full::No_OpClass                  0      0.00%      0.00% # attempts to use FU when none available
system.cpu0.iq.fu_full::IntAlu                    846      0.80%      0.80% # attempts to use FU when none available
system.cpu0.iq.fu_full::IntMult                     0      0.00%      0.80% # attempts to use FU when none available
system.cpu0.iq.fu_full::IntDiv                      0      0.00%      0.80% # attempts to use FU when none available
system.cpu0.iq.fu_full::FloatAdd               104623     98.99%     99.79% # attempts to use FU when none available
system.cpu0.iq.fu_full::FloatCmp                    0      0.00%     99.79% # attempts to use FU when none available
system.cpu0.iq.fu_full::FloatCvt                    0      0.00%     99.79% # attempts to use FU when none available
system.cpu0.iq.fu_full::FloatMult                   0      0.00%     99.79% # attempts to use FU when none available
system.cpu0.iq.fu_full::FloatMultAcc                0      0.00%     99.79% # attempts to use FU when none available
system.cpu0.iq.fu_full::FloatDiv                    0      0.00%     99.79% # attempts to use FU when none available
system.cpu0.iq.fu_full::FloatMisc                   0      0.00%     99.79% # attempts to use FU when none available
system.cpu0.iq.fu_full::FloatSqrt                   0      0.00%     99.79% # attempts to use FU when none available
system.cpu0.iq.fu_full::SimdAdd                     0      0.00%     99.79% # attempts to use FU when none available
system.cpu0.iq.fu_full::SimdAddAcc                  0      0.00%     99.79% # attempts to use FU when none available
system.cpu0.iq.fu_full::SimdAlu                     0      0.00%     99.79% # attempts to use FU when none available
system.cpu0.iq.fu_full::SimdCmp                     0      0.00%     99.79% # attempts to use FU when none available
system.cpu0.iq.fu_full::SimdCvt                     0      0.00%     99.79% # attempts to use FU when none available
system.cpu0.iq.fu_full::SimdMisc                    0      0.00%     99.79% # attempts to use FU when none available
system.cpu0.iq.fu_full::SimdMult                    0      0.00%     99.79% # attempts to use FU when none available
system.cpu0.iq.fu_full::SimdMultAcc                 0      0.00%     99.79% # attempts to use FU when none available
system.cpu0.iq.fu_full::SimdShift                   0      0.00%     99.79% # attempts to use FU when none available
system.cpu0.iq.fu_full::SimdShiftAcc                0      0.00%     99.79% # attempts to use FU when none available
system.cpu0.iq.fu_full::SimdSqrt                    0      0.00%     99.79% # attempts to use FU when none available
system.cpu0.iq.fu_full::SimdFloatAdd                0      0.00%     99.79% # attempts to use FU when none available
system.cpu0.iq.fu_full::SimdFloatAlu                0      0.00%     99.79% # attempts to use FU when none available
system.cpu0.iq.fu_full::SimdFloatCmp                0      0.00%     99.79% # attempts to use FU when none available
system.cpu0.iq.fu_full::SimdFloatCvt                0      0.00%     99.79% # attempts to use FU when none available
system.cpu0.iq.fu_full::SimdFloatDiv                0      0.00%     99.79% # attempts to use FU when none available
system.cpu0.iq.fu_full::SimdFloatMisc               0      0.00%     99.79% # attempts to use FU when none available
system.cpu0.iq.fu_full::SimdFloatMult               0      0.00%     99.79% # attempts to use FU when none available
system.cpu0.iq.fu_full::SimdFloatMultAcc            0      0.00%     99.79% # attempts to use FU when none available
system.cpu0.iq.fu_full::SimdFloatSqrt               0      0.00%     99.79% # attempts to use FU when none available
system.cpu0.iq.fu_full::MemRead                   199      0.19%     99.98% # attempts to use FU when none available
system.cpu0.iq.fu_full::MemWrite                    1      0.00%     99.98% # attempts to use FU when none available
system.cpu0.iq.fu_full::FloatMemRead                0      0.00%     99.98% # attempts to use FU when none available
system.cpu0.iq.fu_full::FloatMemWrite              20      0.02%    100.00% # attempts to use FU when none available
system.cpu0.iq.fu_full::IprAccess                   0      0.00%    100.00% # attempts to use FU when none available
system.cpu0.iq.fu_full::InstPrefetch                0      0.00%    100.00% # attempts to use FU when none available
system.cpu0.iq.FU_type_0::No_OpClass             6453      0.01%      0.01% # Type of FU issued
system.cpu0.iq.FU_type_0::IntAlu             36843420     52.04%     52.05% # Type of FU issued
system.cpu0.iq.FU_type_0::IntMult                   0      0.00%     52.05% # Type of FU issued
system.cpu0.iq.FU_type_0::IntDiv                    0      0.00%     52.05% # Type of FU issued
system.cpu0.iq.FU_type_0::FloatAdd           22948313     32.41%     84.46% # Type of FU issued
system.cpu0.iq.FU_type_0::FloatCmp                  0      0.00%     84.46% # Type of FU issued
system.cpu0.iq.FU_type_0::FloatCvt                  0      0.00%     84.46% # Type of FU issued
system.cpu0.iq.FU_type_0::FloatMult                 0      0.00%     84.46% # Type of FU issued
system.cpu0.iq.FU_type_0::FloatMultAcc              0      0.00%     84.46% # Type of FU issued
system.cpu0.iq.FU_type_0::FloatDiv                  0      0.00%     84.46% # Type of FU issued
system.cpu0.iq.FU_type_0::FloatMisc                 0      0.00%     84.46% # Type of FU issued
system.cpu0.iq.FU_type_0::FloatSqrt                 0      0.00%     84.46% # Type of FU issued
system.cpu0.iq.FU_type_0::SimdAdd                   0      0.00%     84.46% # Type of FU issued
system.cpu0.iq.FU_type_0::SimdAddAcc                0      0.00%     84.46% # Type of FU issued
system.cpu0.iq.FU_type_0::SimdAlu                   0      0.00%     84.46% # Type of FU issued
system.cpu0.iq.FU_type_0::SimdCmp                   0      0.00%     84.46% # Type of FU issued
system.cpu0.iq.FU_type_0::SimdCvt                   0      0.00%     84.46% # Type of FU issued
system.cpu0.iq.FU_type_0::SimdMisc                  0      0.00%     84.46% # Type of FU issued
system.cpu0.iq.FU_type_0::SimdMult                  0      0.00%     84.46% # Type of FU issued
system.cpu0.iq.FU_type_0::SimdMultAcc               0      0.00%     84.46% # Type of FU issued
system.cpu0.iq.FU_type_0::SimdShift                 0      0.00%     84.46% # Type of FU issued
system.cpu0.iq.FU_type_0::SimdShiftAcc              0      0.00%     84.46% # Type of FU issued
system.cpu0.iq.FU_type_0::SimdSqrt                  0      0.00%     84.46% # Type of FU issued
system.cpu0.iq.FU_type_0::SimdFloatAdd              0      0.00%     84.46% # Type of FU issued
system.cpu0.iq.FU_type_0::SimdFloatAlu              0      0.00%     84.46% # Type of FU issued
system.cpu0.iq.FU_type_0::SimdFloatCmp              0      0.00%     84.46% # Type of FU issued
system.cpu0.iq.FU_type_0::SimdFloatCvt              0      0.00%     84.46% # Type of FU issued
system.cpu0.iq.FU_type_0::SimdFloatDiv              0      0.00%     84.46% # Type of FU issued
system.cpu0.iq.FU_type_0::SimdFloatMisc             0      0.00%     84.46% # Type of FU issued
system.cpu0.iq.FU_type_0::SimdFloatMult             0      0.00%     84.46% # Type of FU issued
system.cpu0.iq.FU_type_0::SimdFloatMultAcc            0      0.00%     84.46% # Type of FU issued
system.cpu0.iq.FU_type_0::SimdFloatSqrt             0      0.00%     84.46% # Type of FU issued
system.cpu0.iq.FU_type_0::MemRead             1967505      2.78%     87.24% # Type of FU issued
system.cpu0.iq.FU_type_0::MemWrite            1476644      2.09%     89.33% # Type of FU issued
system.cpu0.iq.FU_type_0::FloatMemRead        6928074      9.79%     99.11% # Type of FU issued
system.cpu0.iq.FU_type_0::FloatMemWrite        627124      0.89%    100.00% # Type of FU issued
system.cpu0.iq.FU_type_0::IprAccess                 0      0.00%    100.00% # Type of FU issued
system.cpu0.iq.FU_type_0::InstPrefetch              0      0.00%    100.00% # Type of FU issued
system.cpu0.iq.FU_type_0::total              70797533                       # Type of FU issued
system.cpu0.iq.rate                          2.318594                       # Inst issue rate
system.cpu0.iq.fu_busy_cnt                     105689                       # FU busy when requested
system.cpu0.iq.fu_busy_rate                  0.001493                       # FU busy rate (busy events/executed inst)
system.cpu0.iq.int_inst_queue_reads          97594011                       # Number of integer instruction queue reads
system.cpu0.iq.int_inst_queue_writes         37585000                       # Number of integer instruction queue writes
system.cpu0.iq.int_inst_queue_wakeup_accesses     33458190                       # Number of integer instruction queue wakeup accesses
system.cpu0.iq.fp_inst_queue_reads           74641548                       # Number of floating instruction queue reads
system.cpu0.iq.fp_inst_queue_writes          49386644                       # Number of floating instruction queue writes
system.cpu0.iq.fp_inst_queue_wakeup_accesses     37116363                       # Number of floating instruction queue wakeup accesses
system.cpu0.iq.vec_inst_queue_reads                 0                       # Number of vector instruction queue reads
system.cpu0.iq.vec_inst_queue_writes                0                       # Number of vector instruction queue writes
system.cpu0.iq.vec_inst_queue_wakeup_accesses            0                       # Number of vector instruction queue wakeup accesses
system.cpu0.iq.int_alu_accesses              33523675                       # Number of integer alu accesses
system.cpu0.iq.fp_alu_accesses               37373094                       # Number of floating point alu accesses
system.cpu0.iq.vec_alu_accesses                     0                       # Number of vector alu accesses
system.cpu0.iew.lsq.thread0.forwLoads          420049                       # Number of loads that had data forwarded from stores
system.cpu0.iew.lsq.thread0.invAddrLoads            0                       # Number of loads ignored due to an invalid address
system.cpu0.iew.lsq.thread0.squashedLoads      1393448                       # Number of loads squashed
system.cpu0.iew.lsq.thread0.ignoredResponses           15                       # Number of memory responses ignored because the instruction is squashed
system.cpu0.iew.lsq.thread0.memOrderViolation          100                       # Number of memory ordering violations
system.cpu0.iew.lsq.thread0.squashedStores        11235                       # Number of stores squashed
system.cpu0.iew.lsq.thread0.invAddrSwpfs            0                       # Number of software prefetches ignored due to an invalid address
system.cpu0.iew.lsq.thread0.blockedLoads            0                       # Number of blocked loads due to partial load-store forwarding
system.cpu0.iew.lsq.thread0.rescheduledLoads            0                       # Number of loads that were rescheduled
system.cpu0.iew.lsq.thread0.cacheBlocked            0                       # Number of times an access to memory failed due to the cache being blocked
system.cpu0.iew.iewIdleCycles                       0                       # Number of cycles IEW is idle
system.cpu0.iew.iewSquashCycles                108772                       # Number of cycles IEW is squashing
system.cpu0.iew.iewBlockCycles                3327374                       # Number of cycles IEW is blocking
system.cpu0.iew.iewUnblockCycles               123469                       # Number of cycles IEW is unblocking
system.cpu0.iew.iewDispatchedInsts           76427312                       # Number of instructions dispatched to IQ
system.cpu0.iew.iewDispSquashedInsts               24                       # Number of squashed instructions skipped by dispatch
system.cpu0.iew.iewDispLoadInsts              9506000                       # Number of dispatched load instructions
system.cpu0.iew.iewDispStoreInsts             2108277                       # Number of dispatched store instructions
system.cpu0.iew.iewDispNonSpecInsts                 8                       # Number of dispatched non-speculative instructions
system.cpu0.iew.iewIQFullEvents                110087                       # Number of times the IQ has become full, causing a stall
system.cpu0.iew.iewLSQFullEvents                    0                       # Number of times the LSQ has become full, causing a stall
system.cpu0.iew.memOrderViolationEvents           100                       # Number of memory order violations
system.cpu0.iew.predictedTakenIncorrect         64776                       # Number of branches that were predicted taken incorrectly
system.cpu0.iew.predictedNotTakenIncorrect        44381                       # Number of branches that were predicted not taken incorrectly
system.cpu0.iew.branchMispredicts              109157                       # Number of branch mispredicts detected at execute
system.cpu0.iew.iewExecutedInsts             70585164                       # Number of executed instructions
system.cpu0.iew.iewExecLoadInsts              8893018                       # Number of load instructions executed
system.cpu0.iew.iewExecSquashedInsts           212375                       # Number of squashed instructions skipped in execute
system.cpu0.iew.exec_swp                            0                       # number of swp insts executed
system.cpu0.iew.exec_nop                            0                       # number of nop insts executed
system.cpu0.iew.exec_refs                    10996082                       # number of memory reference insts executed
system.cpu0.iew.exec_branches                 4720862                       # Number of branches executed
system.cpu0.iew.exec_stores                   2103064                       # Number of stores executed
system.cpu0.iew.exec_rate                    2.311639                       # Inst execution rate
system.cpu0.iew.wb_sent                      70580039                       # cumulative count of insts sent to commit
system.cpu0.iew.wb_count                     70574553                       # cumulative count of insts written-back
system.cpu0.iew.wb_producers                 52558043                       # num instructions producing a value
system.cpu0.iew.wb_consumers                 92494996                       # num instructions consuming a value
system.cpu0.iew.wb_rate                      2.311291                       # insts written-back per cycle
system.cpu0.iew.wb_fanout                    0.568226                       # average fanout of values written-back
system.cpu0.commit.commitSquashedInsts       10544232                       # The number of squashed insts skipped by commit
system.cpu0.commit.branchMispredicts           108672                       # The number of times a branch was mispredicted
system.cpu0.commit.committed_per_cycle::samples     29185628                       # Number of insts commited each cycle
system.cpu0.commit.committed_per_cycle::mean     2.257379                       # Number of insts commited each cycle
system.cpu0.commit.committed_per_cycle::stdev     2.862543                       # Number of insts commited each cycle
system.cpu0.commit.committed_per_cycle::underflows            0      0.00%      0.00% # Number of insts commited each cycle
system.cpu0.commit.committed_per_cycle::0     10936980     37.47%     37.47% # Number of insts commited each cycle
system.cpu0.commit.committed_per_cycle::1      7521857     25.77%     63.25% # Number of insts commited each cycle
system.cpu0.commit.committed_per_cycle::2      1057705      3.62%     66.87% # Number of insts commited each cycle
system.cpu0.commit.committed_per_cycle::3      2902901      9.95%     76.82% # Number of insts commited each cycle
system.cpu0.commit.committed_per_cycle::4      1141743      3.91%     80.73% # Number of insts commited each cycle
system.cpu0.commit.committed_per_cycle::5       217008      0.74%     81.47% # Number of insts commited each cycle
system.cpu0.commit.committed_per_cycle::6       421602      1.44%     82.92% # Number of insts commited each cycle
system.cpu0.commit.committed_per_cycle::7       531225      1.82%     84.74% # Number of insts commited each cycle
system.cpu0.commit.committed_per_cycle::8      4454607     15.26%    100.00% # Number of insts commited each cycle
system.cpu0.commit.committed_per_cycle::overflows            0      0.00%    100.00% # Number of insts commited each cycle
system.cpu0.commit.committed_per_cycle::min_value            0                       # Number of insts commited each cycle
system.cpu0.commit.committed_per_cycle::max_value            8                       # Number of insts commited each cycle
system.cpu0.commit.committed_per_cycle::total     29185628                       # Number of insts commited each cycle
system.cpu0.commit.committedInsts            37107096                       # Number of instructions committed
system.cpu0.commit.committedOps              65883025                       # Number of ops (including micro ops) committed
system.cpu0.commit.swp_count                        0                       # Number of s/w prefetches committed
system.cpu0.commit.refs                      10209586                       # Number of memory references committed
system.cpu0.commit.loads                      8112552                       # Number of loads committed
system.cpu0.commit.membars                          0                       # Number of memory barriers committed
system.cpu0.commit.branches                   4609172                       # Number of branches committed
system.cpu0.commit.vec_insts                        0                       # Number of committed Vector instructions.
system.cpu0.commit.fp_insts                  34064885                       # Number of committed floating point instructions.
system.cpu0.commit.int_insts                 40902368                       # Number of committed integer instructions.
system.cpu0.commit.function_calls              626986                       # Number of function calls committed.
system.cpu0.commit.op_class_0::No_OpClass         5987      0.01%      0.01% # Class of committed instruction
system.cpu0.commit.op_class_0::IntAlu        34246077     51.98%     51.99% # Class of committed instruction
system.cpu0.commit.op_class_0::IntMult              0      0.00%     51.99% # Class of committed instruction
system.cpu0.commit.op_class_0::IntDiv               0      0.00%     51.99% # Class of committed instruction
system.cpu0.commit.op_class_0::FloatAdd      21421375     32.51%     84.50% # Class of committed instruction
system.cpu0.commit.op_class_0::FloatCmp             0      0.00%     84.50% # Class of committed instruction
system.cpu0.commit.op_class_0::FloatCvt             0      0.00%     84.50% # Class of committed instruction
system.cpu0.commit.op_class_0::FloatMult            0      0.00%     84.50% # Class of committed instruction
system.cpu0.commit.op_class_0::FloatMultAcc            0      0.00%     84.50% # Class of committed instruction
system.cpu0.commit.op_class_0::FloatDiv             0      0.00%     84.50% # Class of committed instruction
system.cpu0.commit.op_class_0::FloatMisc            0      0.00%     84.50% # Class of committed instruction
system.cpu0.commit.op_class_0::FloatSqrt            0      0.00%     84.50% # Class of committed instruction
system.cpu0.commit.op_class_0::SimdAdd              0      0.00%     84.50% # Class of committed instruction
system.cpu0.commit.op_class_0::SimdAddAcc            0      0.00%     84.50% # Class of committed instruction
system.cpu0.commit.op_class_0::SimdAlu              0      0.00%     84.50% # Class of committed instruction
system.cpu0.commit.op_class_0::SimdCmp              0      0.00%     84.50% # Class of committed instruction
system.cpu0.commit.op_class_0::SimdCvt              0      0.00%     84.50% # Class of committed instruction
system.cpu0.commit.op_class_0::SimdMisc             0      0.00%     84.50% # Class of committed instruction
system.cpu0.commit.op_class_0::SimdMult             0      0.00%     84.50% # Class of committed instruction
system.cpu0.commit.op_class_0::SimdMultAcc            0      0.00%     84.50% # Class of committed instruction
system.cpu0.commit.op_class_0::SimdShift            0      0.00%     84.50% # Class of committed instruction
system.cpu0.commit.op_class_0::SimdShiftAcc            0      0.00%     84.50% # Class of committed instruction
system.cpu0.commit.op_class_0::SimdSqrt             0      0.00%     84.50% # Class of committed instruction
system.cpu0.commit.op_class_0::SimdFloatAdd            0      0.00%     84.50% # Class of committed instruction
system.cpu0.commit.op_class_0::SimdFloatAlu            0      0.00%     84.50% # Class of committed instruction
system.cpu0.commit.op_class_0::SimdFloatCmp            0      0.00%     84.50% # Class of committed instruction
system.cpu0.commit.op_class_0::SimdFloatCvt            0      0.00%     84.50% # Class of committed instruction
system.cpu0.commit.op_class_0::SimdFloatDiv            0      0.00%     84.50% # Class of committed instruction
system.cpu0.commit.op_class_0::SimdFloatMisc            0      0.00%     84.50% # Class of committed instruction
system.cpu0.commit.op_class_0::SimdFloatMult            0      0.00%     84.50% # Class of committed instruction
system.cpu0.commit.op_class_0::SimdFloatMultAcc            0      0.00%     84.50% # Class of committed instruction
system.cpu0.commit.op_class_0::SimdFloatSqrt            0      0.00%     84.50% # Class of committed instruction
system.cpu0.commit.op_class_0::MemRead        1948275      2.96%     87.46% # Class of committed instruction
system.cpu0.commit.op_class_0::MemWrite       1470045      2.23%     89.69% # Class of committed instruction
system.cpu0.commit.op_class_0::FloatMemRead      6164277      9.36%     99.05% # Class of committed instruction
system.cpu0.commit.op_class_0::FloatMemWrite       626989      0.95%    100.00% # Class of committed instruction
system.cpu0.commit.op_class_0::IprAccess            0      0.00%    100.00% # Class of committed instruction
system.cpu0.commit.op_class_0::InstPrefetch            0      0.00%    100.00% # Class of committed instruction
system.cpu0.commit.op_class_0::total         65883025                       # Class of committed instruction
system.cpu0.commit.bw_lim_events              4454607                       # number cycles where commit BW limit reached
system.cpu0.rob.rob_reads                   101158278                       # The number of ROB reads
system.cpu0.rob.rob_writes                  154203656                       # The number of ROB writes
system.cpu0.committedInsts                   37107096                       # Number of Instructions Simulated
system.cpu0.committedOps                     65883025                       # Number of Ops (including micro ops) Simulated
system.cpu0.cpi                              0.822880                       # CPI: Cycles Per Instruction
system.cpu0.cpi_total                        0.822880                       # CPI: Total CPI of All Threads
system.cpu0.ipc                              1.215244                       # IPC: Instructions Per Cycle
system.cpu0.ipc_total                        1.215244                       # IPC: Total IPC of All Threads
system.cpu0.int_regfile_reads                56221104                       # number of integer regfile reads
system.cpu0.int_regfile_writes               28608766                       # number of integer regfile writes
system.cpu0.fp_regfile_reads                 64689105                       # number of floating regfile reads
system.cpu0.fp_regfile_writes                33258002                       # number of floating regfile writes
system.cpu0.cc_regfile_reads                 20616022                       # number of cc regfile reads
system.cpu0.cc_regfile_writes                13415864                       # number of cc regfile writes
system.cpu0.misc_regfile_reads               24147080                       # number of misc regfile reads
system.cpu0.dcache.tags.pwrStateResidencyTicks::UNDEFINED  15267344125                       # Cumulative time (in ticks) in various power states
system.cpu0.dcache.tags.replacements            14268                       # number of replacements
system.cpu0.dcache.tags.tagsinuse                1024                       # Cycle average of tags in use
system.cpu0.dcache.tags.total_refs            1097748                       # Total number of references to valid blocks.
system.cpu0.dcache.tags.sampled_refs            14268                       # Sample count of references to valid blocks.
system.cpu0.dcache.tags.avg_refs            76.937763                       # Average number of references to valid blocks.
system.cpu0.dcache.tags.warmup_cycle                0                       # Cycle when the warmup percentage was hit.
system.cpu0.dcache.tags.occ_blocks::cpu0.data         1024                       # Average occupied blocks per requestor
system.cpu0.dcache.tags.occ_percent::cpu0.data            1                       # Average percentage of cache occupancy
system.cpu0.dcache.tags.occ_percent::total            1                       # Average percentage of cache occupancy
system.cpu0.dcache.tags.occ_task_id_blocks::1024         1024                       # Occupied blocks per task id
system.cpu0.dcache.tags.age_task_id_blocks_1024::0            9                       # Occupied blocks per task id
system.cpu0.dcache.tags.age_task_id_blocks_1024::1           84                       # Occupied blocks per task id
system.cpu0.dcache.tags.age_task_id_blocks_1024::2          707                       # Occupied blocks per task id
system.cpu0.dcache.tags.age_task_id_blocks_1024::3            4                       # Occupied blocks per task id
system.cpu0.dcache.tags.age_task_id_blocks_1024::4          220                       # Occupied blocks per task id
system.cpu0.dcache.tags.occ_task_id_percent::1024            1                       # Percentage of cache occupancy per task id
system.cpu0.dcache.tags.tag_accesses         42397348                       # Number of tag accesses
system.cpu0.dcache.tags.data_accesses        42397348                       # Number of data accesses
system.cpu0.dcache.pwrStateResidencyTicks::UNDEFINED  15267344125                       # Cumulative time (in ticks) in various power states
system.cpu0.dcache.ReadReq_hits::cpu0.data      8484360                       # number of ReadReq hits
system.cpu0.dcache.ReadReq_hits::total        8484360                       # number of ReadReq hits
system.cpu0.dcache.WriteReq_hits::cpu0.data      2097034                       # number of WriteReq hits
system.cpu0.dcache.WriteReq_hits::total       2097034                       # number of WriteReq hits
system.cpu0.dcache.demand_hits::cpu0.data     10581394                       # number of demand (read+write) hits
system.cpu0.dcache.demand_hits::total        10581394                       # number of demand (read+write) hits
system.cpu0.dcache.overall_hits::cpu0.data     10581394                       # number of overall hits
system.cpu0.dcache.overall_hits::total       10581394                       # number of overall hits
system.cpu0.dcache.ReadReq_misses::cpu0.data        14376                       # number of ReadReq misses
system.cpu0.dcache.ReadReq_misses::total        14376                       # number of ReadReq misses
system.cpu0.dcache.demand_misses::cpu0.data        14376                       # number of demand (read+write) misses
system.cpu0.dcache.demand_misses::total         14376                       # number of demand (read+write) misses
system.cpu0.dcache.overall_misses::cpu0.data        14376                       # number of overall misses
system.cpu0.dcache.overall_misses::total        14376                       # number of overall misses
system.cpu0.dcache.ReadReq_miss_latency::cpu0.data   1392012500                       # number of ReadReq miss cycles
system.cpu0.dcache.ReadReq_miss_latency::total   1392012500                       # number of ReadReq miss cycles
system.cpu0.dcache.demand_miss_latency::cpu0.data   1392012500                       # number of demand (read+write) miss cycles
system.cpu0.dcache.demand_miss_latency::total   1392012500                       # number of demand (read+write) miss cycles
system.cpu0.dcache.overall_miss_latency::cpu0.data   1392012500                       # number of overall miss cycles
system.cpu0.dcache.overall_miss_latency::total   1392012500                       # number of overall miss cycles
system.cpu0.dcache.ReadReq_accesses::cpu0.data      8498736                       # number of ReadReq accesses(hits+misses)
system.cpu0.dcache.ReadReq_accesses::total      8498736                       # number of ReadReq accesses(hits+misses)
system.cpu0.dcache.WriteReq_accesses::cpu0.data      2097034                       # number of WriteReq accesses(hits+misses)
system.cpu0.dcache.WriteReq_accesses::total      2097034                       # number of WriteReq accesses(hits+misses)
system.cpu0.dcache.demand_accesses::cpu0.data     10595770                       # number of demand (read+write) accesses
system.cpu0.dcache.demand_accesses::total     10595770                       # number of demand (read+write) accesses
system.cpu0.dcache.overall_accesses::cpu0.data     10595770                       # number of overall (read+write) accesses
system.cpu0.dcache.overall_accesses::total     10595770                       # number of overall (read+write) accesses
system.cpu0.dcache.ReadReq_miss_rate::cpu0.data     0.001692                       # miss rate for ReadReq accesses
system.cpu0.dcache.ReadReq_miss_rate::total     0.001692                       # miss rate for ReadReq accesses
system.cpu0.dcache.demand_miss_rate::cpu0.data     0.001357                       # miss rate for demand accesses
system.cpu0.dcache.demand_miss_rate::total     0.001357                       # miss rate for demand accesses
system.cpu0.dcache.overall_miss_rate::cpu0.data     0.001357                       # miss rate for overall accesses
system.cpu0.dcache.overall_miss_rate::total     0.001357                       # miss rate for overall accesses
system.cpu0.dcache.ReadReq_avg_miss_latency::cpu0.data 96828.916249                       # average ReadReq miss latency
system.cpu0.dcache.ReadReq_avg_miss_latency::total 96828.916249                       # average ReadReq miss latency
system.cpu0.dcache.demand_avg_miss_latency::cpu0.data 96828.916249                       # average overall miss latency
system.cpu0.dcache.demand_avg_miss_latency::total 96828.916249                       # average overall miss latency
system.cpu0.dcache.overall_avg_miss_latency::cpu0.data 96828.916249                       # average overall miss latency
system.cpu0.dcache.overall_avg_miss_latency::total 96828.916249                       # average overall miss latency
system.cpu0.dcache.blocked_cycles::no_mshrs            0                       # number of cycles access was blocked
system.cpu0.dcache.blocked_cycles::no_targets            0                       # number of cycles access was blocked
system.cpu0.dcache.blocked::no_mshrs                0                       # number of cycles access was blocked
system.cpu0.dcache.blocked::no_targets              0                       # number of cycles access was blocked
system.cpu0.dcache.avg_blocked_cycles::no_mshrs          nan                       # average number of cycles each access was blocked
system.cpu0.dcache.avg_blocked_cycles::no_targets          nan                       # average number of cycles each access was blocked
system.cpu0.dcache.writebacks::writebacks        13427                       # number of writebacks
system.cpu0.dcache.writebacks::total            13427                       # number of writebacks
system.cpu0.dcache.ReadReq_mshr_hits::cpu0.data          108                       # number of ReadReq MSHR hits
system.cpu0.dcache.ReadReq_mshr_hits::total          108                       # number of ReadReq MSHR hits
system.cpu0.dcache.demand_mshr_hits::cpu0.data          108                       # number of demand (read+write) MSHR hits
system.cpu0.dcache.demand_mshr_hits::total          108                       # number of demand (read+write) MSHR hits
system.cpu0.dcache.overall_mshr_hits::cpu0.data          108                       # number of overall MSHR hits
system.cpu0.dcache.overall_mshr_hits::total          108                       # number of overall MSHR hits
system.cpu0.dcache.ReadReq_mshr_misses::cpu0.data        14268                       # number of ReadReq MSHR misses
[...]
system.l2.tags.pwrStateResidencyTicks::UNDEFINED  15267344125                       # Cumulative time (in ticks) in various power states
system.l2.tags.replacements                     14239                       # number of replacements
system.l2.tags.tagsinuse                        49152                       # Cycle average of tags in use
system.l2.tags.total_refs                       14238                       # Total number of references to valid blocks.
system.l2.tags.sampled_refs                     14239                       # Sample count of references to valid blocks.
system.l2.tags.avg_refs                      0.999930                       # Average number of references to valid blocks.
system.l2.tags.warmup_cycle                         0                       # Cycle when the warmup percentage was hit.
system.l2.tags.occ_blocks::cpu0.data            49152                       # Average occupied blocks per requestor
system.l2.tags.occ_percent::cpu0.data               1                       # Average percentage of cache occupancy
system.l2.tags.occ_percent::total                   1                       # Average percentage of cache occupancy
system.l2.tags.occ_task_id_blocks::1024         49152                       # Occupied blocks per task id
system.l2.tags.age_task_id_blocks_1024::0            9                       # Occupied blocks per task id
system.l2.tags.age_task_id_blocks_1024::1           84                       # Occupied blocks per task id
system.l2.tags.age_task_id_blocks_1024::2          847                       # Occupied blocks per task id
system.l2.tags.age_task_id_blocks_1024::3         8390                       # Occupied blocks per task id
system.l2.tags.age_task_id_blocks_1024::4        39822                       # Occupied blocks per task id
system.l2.tags.occ_task_id_percent::1024            1                       # Percentage of cache occupancy per task id
system.l2.tags.tag_accesses                    356671                       # Number of tag accesses
system.l2.tags.data_accesses                   356671                       # Number of data accesses
system.l2.pwrStateResidencyTicks::UNDEFINED  15267344125                       # Cumulative time (in ticks) in various power states
system.l2.WritebackDirty_hits::writebacks        13427                       # number of WritebackDirty hits
system.l2.WritebackDirty_hits::total            13427                       # number of WritebackDirty hits
system.l2.ReadSharedReq_hits::cpu0.data            29                       # number of ReadSharedReq hits
system.l2.ReadSharedReq_hits::total                29                       # number of ReadSharedReq hits
system.l2.demand_hits::cpu0.data                   29                       # number of demand (read+write) hits
system.l2.demand_hits::total                       29                       # number of demand (read+write) hits
system.l2.overall_hits::cpu0.data                  29                       # number of overall hits
system.l2.overall_hits::total                      29                       # number of overall hits
system.l2.ReadSharedReq_misses::cpu0.data        14239                       # number of ReadSharedReq misses
system.l2.ReadSharedReq_misses::total           14239                       # number of ReadSharedReq misses
system.l2.demand_misses::cpu0.data              14239                       # number of demand (read+write) misses
system.l2.demand_misses::total                  14239                       # number of demand (read+write) misses
system.l2.overall_misses::cpu0.data             14239                       # number of overall misses
system.l2.overall_misses::total                 14239                       # number of overall misses
system.l2.ReadSharedReq_miss_latency::cpu0.data   1349711500                       # number of ReadSharedReq miss cycles
system.l2.ReadSharedReq_miss_latency::total   1349711500                       # number of ReadSharedReq miss cycles
system.l2.demand_miss_latency::cpu0.data   1349711500                       # number of demand (read+write) miss cycles
system.l2.demand_miss_latency::total       1349711500                       # number of demand (read+write) miss cycles
system.l2.overall_miss_latency::cpu0.data   1349711500                       # number of overall miss cycles
system.l2.overall_miss_latency::total      1349711500                       # number of overall miss cycles
system.l2.WritebackDirty_accesses::writebacks        13427                       # number of WritebackDirty accesses(hits+misses)
system.l2.WritebackDirty_accesses::total        13427                       # number of WritebackDirty accesses(hits+misses)
system.l2.ReadSharedReq_accesses::cpu0.data        14268                       # number of ReadSharedReq accesses(hits+misses)
system.l2.ReadSharedReq_accesses::total         14268                       # number of ReadSharedReq accesses(hits+misses)
system.l2.demand_accesses::cpu0.data            14268                       # number of demand (read+write) accesses
system.l2.demand_accesses::total                14268                       # number of demand (read+write) accesses
system.l2.overall_accesses::cpu0.data           14268                       # number of overall (read+write) accesses
system.l2.overall_accesses::total               14268                       # number of overall (read+write) accesses
system.l2.ReadSharedReq_miss_rate::cpu0.data     0.997967                       # miss rate for ReadSharedReq accesses
system.l2.ReadSharedReq_miss_rate::total     0.997967                       # miss rate for ReadSharedReq accesses
system.l2.demand_miss_rate::cpu0.data        0.997967                       # miss rate for demand accesses
system.l2.demand_miss_rate::total            0.997967                       # miss rate for demand accesses
system.l2.overall_miss_rate::cpu0.data       0.997967                       # miss rate for overall accesses
system.l2.overall_miss_rate::total           0.997967                       # miss rate for overall accesses
system.l2.ReadSharedReq_avg_miss_latency::cpu0.data 94789.767540                       # average ReadSharedReq miss latency
system.l2.ReadSharedReq_avg_miss_latency::total 94789.767540                       # average ReadSharedReq miss latency
system.l2.demand_avg_miss_latency::cpu0.data 94789.767540                       # average overall miss latency
system.l2.demand_avg_miss_latency::total 94789.767540                       # average overall miss latency
system.l2.overall_avg_miss_latency::cpu0.data 94789.767540                       # average overall miss latency
system.l2.overall_avg_miss_latency::total 94789.767540                       # average overall miss latency
system.l2.blocked_cycles::no_mshrs                  0                       # number of cycles access was blocked
system.l2.blocked_cycles::no_targets                0                       # number of cycles access was blocked
system.l2.blocked::no_mshrs                         0                       # number of cycles access was blocked
system.l2.blocked::no_targets                       0                       # number of cycles access was blocked
system.l2.avg_blocked_cycles::no_mshrs            nan                       # average number of cycles each access was blocked
system.l2.avg_blocked_cycles::no_targets          nan                       # average number of cycles each access was blocked
system.l2.writebacks::writebacks                13416                       # number of writebacks
system.l2.writebacks::total                     13416                       # number of writebacks
system.l2.ReadSharedReq_mshr_misses::cpu0.data        14239                       # number of ReadSharedReq MSHR misses
system.l2.ReadSharedReq_mshr_misses::total        14239                       # number of ReadSharedReq MSHR misses
system.l2.demand_mshr_misses::cpu0.data         14239                       # number of demand (read+write) MSHR misses
system.l2.demand_mshr_misses::total             14239                       # number of demand (read+write) MSHR misses
system.l2.overall_mshr_misses::cpu0.data        14239                       # number of overall MSHR misses
system.l2.overall_mshr_misses::total            14239                       # number of overall MSHR misses
system.l2.ReadSharedReq_mshr_miss_latency::cpu0.data   1207321500                       # number of ReadSharedReq MSHR miss cycles
system.l2.ReadSharedReq_mshr_miss_latency::total   1207321500                       # number of ReadSharedReq MSHR miss cycles
system.l2.demand_mshr_miss_latency::cpu0.data   1207321500                       # number of demand (read+write) MSHR miss cycles
system.l2.demand_mshr_miss_latency::total   1207321500                       # number of demand (read+write) MSHR miss cycles
system.l2.overall_mshr_miss_latency::cpu0.data   1207321500                       # number of overall MSHR miss cycles
system.l2.overall_mshr_miss_latency::total   1207321500                       # number of overall MSHR miss cycles
system.l2.ReadSharedReq_mshr_miss_rate::cpu0.data     0.997967                       # mshr miss rate for ReadSharedReq accesses
system.l2.ReadSharedReq_mshr_miss_rate::total     0.997967                       # mshr miss rate for ReadSharedReq accesses
system.l2.demand_mshr_miss_rate::cpu0.data     0.997967                       # mshr miss rate for demand accesses
system.l2.demand_mshr_miss_rate::total       0.997967                       # mshr miss rate for demand accesses
system.l2.overall_mshr_miss_rate::cpu0.data     0.997967                       # mshr miss rate for overall accesses
system.l2.overall_mshr_miss_rate::total      0.997967                       # mshr miss rate for overall accesses
system.l2.ReadSharedReq_avg_mshr_miss_latency::cpu0.data 84789.767540                       # average ReadSharedReq mshr miss latency
system.l2.ReadSharedReq_avg_mshr_miss_latency::total 84789.767540                       # average ReadSharedReq mshr miss latency
system.l2.demand_avg_mshr_miss_latency::cpu0.data 84789.767540                       # average overall mshr miss latency
system.l2.demand_avg_mshr_miss_latency::total 84789.767540                       # average overall mshr miss latency
system.l2.overall_avg_mshr_miss_latency::cpu0.data 84789.767540                       # average overall mshr miss latency
system.l2.overall_avg_mshr_miss_latency::total 84789.767540                       # average overall mshr miss latency
system.membus.snoop_filter.tot_requests         28477                       # Total number of requests made to the snoop filter.
system.membus.snoop_filter.hit_single_requests        14238                       # Number of requests hitting in the snoop filter with a single holder of the requested data.
system.membus.snoop_filter.hit_multi_requests            0                       # Number of requests hitting in the snoop filter with multiple (>1) holders of the requested data.
system.membus.snoop_filter.tot_snoops               0                       # Total number of snoops made to the snoop filter.
system.membus.snoop_filter.hit_single_snoops            0                       # Number of snoops hitting in the snoop filter with a single holder of the requested data.
system.membus.snoop_filter.hit_multi_snoops            0                       # Number of snoops hitting in the snoop filter with multiple (>1) holders of the requested data.
system.membus.pwrStateResidencyTicks::UNDEFINED  15267344125                       # Cumulative time (in ticks) in various power states
system.membus.trans_dist::ReadResp              14239                       # Transaction distribution
system.membus.trans_dist::WritebackDirty        13416                       # Transaction distribution
system.membus.trans_dist::CleanEvict              822                       # Transaction distribution
system.membus.trans_dist::ReadSharedReq         14239                       # Transaction distribution
system.membus.pkt_count_system.l2.mem_side::system.mem_ctrls.port        42716                       # Packet count per connected master and slave (bytes)
system.membus.pkt_count_system.l2.mem_side::total        42716                       # Packet count per connected master and slave (bytes)
system.membus.pkt_count::total                  42716                       # Packet count per connected master and slave (bytes)
system.membus.pkt_size_system.l2.mem_side::system.mem_ctrls.port      1769920                       # Cumulative packet size per connected master and slave (bytes)
system.membus.pkt_size_system.l2.mem_side::total      1769920                       # Cumulative packet size per connected master and slave (bytes)
system.membus.pkt_size::total                 1769920                       # Cumulative packet size per connected master and slave (bytes)
system.membus.snoops                                0                       # Total snoops (count)
system.membus.snoopTraffic                          0                       # Total snoop traffic (bytes)
system.membus.snoop_fanout::samples             14239                       # Request fanout histogram
system.membus.snoop_fanout::mean                    0                       # Request fanout histogram
system.membus.snoop_fanout::stdev                   0                       # Request fanout histogram
system.membus.snoop_fanout::underflows              0      0.00%      0.00% # Request fanout histogram
system.membus.snoop_fanout::0                   14239    100.00%    100.00% # Request fanout histogram
system.membus.snoop_fanout::1                       0      0.00%    100.00% # Request fanout histogram
system.membus.snoop_fanout::overflows               0      0.00%    100.00% # Request fanout histogram
system.membus.snoop_fanout::min_value               0                       # Request fanout histogram
system.membus.snoop_fanout::max_value               0                       # Request fanout histogram
system.membus.snoop_fanout::total               14239                       # Request fanout histogram
system.membus.reqLayer8.occupancy            85676000                       # Layer occupancy (ticks)
system.membus.reqLayer8.utilization               0.6                       # Layer utilization (%)
system.membus.respLayer1.occupancy           75827250                       # Layer occupancy (ticks)
system.membus.respLayer1.utilization              0.5                       # Layer utilization (%)
system.tol2bus.snoop_filter.tot_requests        28536                       # Total number of requests made to the snoop filter.
system.tol2bus.snoop_filter.hit_single_requests        14268                       # Number of requests hitting in the snoop filter with a single holder of the requested data.
system.tol2bus.snoop_filter.hit_multi_requests            0                       # Number of requests hitting in the snoop filter with multiple (>1) holders of the requested data.
system.tol2bus.snoop_filter.tot_snoops              1                       # Total number of snoops made to the snoop filter.
system.tol2bus.snoop_filter.hit_single_snoops            1                       # Number of snoops hitting in the snoop filter with a single holder of the requested data.
system.tol2bus.snoop_filter.hit_multi_snoops            0                       # Number of snoops hitting in the snoop filter with multiple (>1) holders of the requested data.
system.tol2bus.pwrStateResidencyTicks::UNDEFINED  15267344125                       # Cumulative time (in ticks) in various power states
system.tol2bus.trans_dist::ReadResp             14268                       # Transaction distribution
system.tol2bus.trans_dist::WritebackDirty        26843                       # Transaction distribution
system.tol2bus.trans_dist::CleanEvict            1664                       # Transaction distribution
system.tol2bus.trans_dist::ReadSharedReq        14268                       # Transaction distribution
system.tol2bus.pkt_count_system.cpu0.dcache.mem_side::system.l2.cpu_side        42804                       # Packet count per connected master and slave (bytes)
system.tol2bus.pkt_count::total                 42804                       # Packet count per connected master and slave (bytes)
system.tol2bus.pkt_size_system.cpu0.dcache.mem_side::system.l2.cpu_side      1772480                       # Cumulative packet size per connected master and slave (bytes)
system.tol2bus.pkt_size::total                1772480                       # Cumulative packet size per connected master and slave (bytes)
system.tol2bus.snoops                           14239                       # Total snoops (count)
system.tol2bus.snoopTraffic                    858624                       # Total snoop traffic (bytes)
system.tol2bus.snoop_fanout::samples            28507                       # Request fanout histogram
system.tol2bus.snoop_fanout::mean            0.000035                       # Request fanout histogram
system.tol2bus.snoop_fanout::stdev           0.005923                       # Request fanout histogram
system.tol2bus.snoop_fanout::underflows             0      0.00%      0.00% # Request fanout histogram
system.tol2bus.snoop_fanout::0                  28506    100.00%    100.00% # Request fanout histogram
system.tol2bus.snoop_fanout::1                      1      0.00%    100.00% # Request fanout histogram
system.tol2bus.snoop_fanout::2                      0      0.00%    100.00% # Request fanout histogram
system.tol2bus.snoop_fanout::3                      0      0.00%    100.00% # Request fanout histogram
system.tol2bus.snoop_fanout::4                      0      0.00%    100.00% # Request fanout histogram
system.tol2bus.snoop_fanout::5                      0      0.00%    100.00% # Request fanout histogram
system.tol2bus.snoop_fanout::6                      0      0.00%    100.00% # Request fanout histogram
system.tol2bus.snoop_fanout::7                      0      0.00%    100.00% # Request fanout histogram
system.tol2bus.snoop_fanout::8                      0      0.00%    100.00% # Request fanout histogram
system.tol2bus.snoop_fanout::9                      0      0.00%    100.00% # Request fanout histogram
system.tol2bus.snoop_fanout::10                     0      0.00%    100.00% # Request fanout histogram
system.tol2bus.snoop_fanout::11                     0      0.00%    100.00% # Request fanout histogram
system.tol2bus.snoop_fanout::12                     0      0.00%    100.00% # Request fanout histogram
system.tol2bus.snoop_fanout::13                     0      0.00%    100.00% # Request fanout histogram
system.tol2bus.snoop_fanout::14                     0      0.00%    100.00% # Request fanout histogram
system.tol2bus.snoop_fanout::15                     0      0.00%    100.00% # Request fanout histogram
system.tol2bus.snoop_fanout::16                     0      0.00%    100.00% # Request fanout histogram
system.tol2bus.snoop_fanout::overflows              0      0.00%    100.00% # Request fanout histogram
system.tol2bus.snoop_fanout::min_value              0                       # Request fanout histogram
system.tol2bus.snoop_fanout::max_value              1                       # Request fanout histogram
system.tol2bus.snoop_fanout::total              28507                       # Request fanout histogram
system.tol2bus.reqLayer0.occupancy           27695000                       # Layer occupancy (ticks)
system.tol2bus.reqLayer0.utilization              0.2                       # Layer utilization (%)
system.tol2bus.respLayer1.occupancy          21402000                       # Layer occupancy (ticks)
system.tol2bus.respLayer1.utilization             0.1                       # Layer utilization (%)

---------- End Simulation Statistics   ----------
