
---------- Begin Simulation Statistics ----------
sim_seconds                                  0.015267                       # Number of seconds simulated
sim_ticks                                 15267344125                       # Number of ticks simulated
final_tick                               3236676954500                       # Number of ticks from beginning of simulation (restored from checkpoints and never reset)
sim_freq                                 1000000000000                       # Frequency of simulated ticks
host_inst_rate                               95210093                       # Simulator instruction rate (inst/s)
host_op_rate                                176516310                       # Simulator op (including micro ops) rate (op/s)
host_tick_rate                              258782214                       # Simulator tick rate (ticks/s)
host_mem_usage                                2332656                       # Number of bytes of host memory used
host_seconds                                    59.00                       # Real time elapsed on the host
sim_insts                                  5617096942                       # Number of instructions simulated
sim_ops                                   10413910527                       # Number of ops (including micro ops) simulated
system.voltage_domain.voltage                       1                       # Voltage in Volts
system.clk_domain.clock                          1000                       # Clock period in ticks
system.mem_ctrls.pwrStateResidencyTicks::UNDEFINED  15267344125                       # Cumulative time (in ticks) in various power states
system.mem_ctrls.bytes_read::cpu0.inst            192                       # Number of bytes read from this memory
system.mem_ctrls.bytes_read::cpu0.data       10206336                       # Number of bytes read from this memory
system.mem_ctrls.bytes_read::total           10206528                       # Number of bytes read from this memory
system.mem_ctrls.bytes_inst_read::cpu0.inst          192                       # Number of instructions bytes read from this memory
system.mem_ctrls.bytes_inst_read::total           192                       # Number of instructions bytes read from this memory
system.mem_ctrls.bytes_written::writebacks        49664                       # Number of bytes written to this memory
system.mem_ctrls.bytes_written::total           49664                       # Number of bytes written to this memory
system.mem_ctrls.num_reads::cpu0.inst               3                       # Number of read requests responded to by this memory
system.mem_ctrls.num_reads::cpu0.data          159474                       # Number of read requests responded to by this memory
system.mem_ctrls.num_reads::total              159477                       # Number of read requests responded to by this memory
system.mem_ctrls.num_writes::writebacks           776                       # Number of write requests responded to by this memory
system.mem_ctrls.num_writes::total                776                       # Number of write requests responded to by this memory
system.mem_ctrls.bw_read::cpu0.inst             12576                       # Total read bandwidth from this memory (bytes/s)
system.mem_ctrls.bw_read::cpu0.data         668507628                       # Total read bandwidth from this memory (bytes/s)
system.mem_ctrls.bw_read::total             668520203                       # Total read bandwidth from this memory (bytes/s)
system.mem_ctrls.bw_inst_read::cpu0.inst        12576                       # Instruction read bandwidth from this memory (bytes/s)
system.mem_ctrls.bw_inst_read::total            12576                       # Instruction read bandwidth from this memory (bytes/s)
system.mem_ctrls.bw_write::writebacks         3252956                       # Write bandwidth from this memory (bytes/s)
system.mem_ctrls.bw_write::total              3252956                       # Write bandwidth from this memory (bytes/s)
system.mem_ctrls.bw_total::writebacks         3252956                       # Total bandwidth to/from this memory (bytes/s)
system.mem_ctrls.bw_total::cpu0.inst            12576                       # Total bandwidth to/from this memory (bytes/s)
system.mem_ctrls.bw_total::cpu0.data        668507628                       # Total bandwidth to/from this memory (bytes/s)
system.mem_ctrls.bw_total::total            671773159                       # Total bandwidth to/from this memory (bytes/s)
system.mem_ctrls.readReqs                      159478                       # Number of read requests accepted
system.mem_ctrls.writeReqs                        776                       # Number of write requests accepted
system.mem_ctrls.readBursts                    159478                       # Number of DRAM read bursts, including those serviced by the write queue
system.mem_ctrls.writeBursts                      776                       # Number of DRAM write bursts, including those merged in the write queue
system.mem_ctrls.bytesReadDRAM               10199296                       # Total number of bytes read from DRAM
system.mem_ctrls.bytesReadWrQ                    7296                       # Total number of bytes read from write queue
system.mem_ctrls.bytesWritten                   48960                       # Total number of bytes written to DRAM
system.mem_ctrls.bytesReadSys                10206592                       # Total read bytes from the system interface side
system.mem_ctrls.bytesWrittenSys                49664                       # Total written bytes from the system interface side
system.mem_ctrls.servicedByWrQ                    114                       # Number of DRAM read bursts serviced by the write queue
system.mem_ctrls.mergedWrBursts                     0                       # Number of DRAM write bursts merged with an existing one
system.mem_ctrls.neitherReadNorWriteReqs            0                       # Number of requests that are neither read nor write
system.mem_ctrls.perBankRdBursts::0             10022                       # Per bank write bursts
system.mem_ctrls.perBankRdBursts::1              9620                       # Per bank write bursts
system.mem_ctrls.perBankRdBursts::2              9538                       # Per bank write bursts
system.mem_ctrls.perBankRdBursts::3              9458                       # Per bank write bursts
system.mem_ctrls.perBankRdBursts::4              9417                       # Per bank write bursts
system.mem_ctrls.perBankRdBursts::5              9874                       # Per bank write bursts
system.mem_ctrls.perBankRdBursts::6              9691                       # Per bank write bursts
system.mem_ctrls.perBankRdBursts::7              9634                       # Per bank write bursts
system.mem_ctrls.perBankRdBursts::8              9550                       # Per bank write bursts
system.mem_ctrls.perBankRdBursts::9              9910                       # Per bank write bursts
system.mem_ctrls.perBankRdBursts::10             9425                       # Per bank write bursts
system.mem_ctrls.perBankRdBursts::11            10345                       # Per bank write bursts
system.mem_ctrls.perBankRdBursts::12            10962                       # Per bank write bursts
system.mem_ctrls.perBankRdBursts::13            10907                       # Per bank write bursts
system.mem_ctrls.perBankRdBursts::14            10730                       # Per bank write bursts
system.mem_ctrls.perBankRdBursts::15            10281                       # Per bank write bursts
system.mem_ctrls.perBankWrBursts::0                35                       # Per bank write bursts
system.mem_ctrls.perBankWrBursts::1                56                       # Per bank write bursts
system.mem_ctrls.perBankWrBursts::2                 0                       # Per bank write bursts
system.mem_ctrls.perBankWrBursts::3                 0                       # Per bank write bursts
system.mem_ctrls.perBankWrBursts::4                 0                       # Per bank write bursts
system.mem_ctrls.perBankWrBursts::5                29                       # Per bank write bursts
system.mem_ctrls.perBankWrBursts::6                 1                       # Per bank write bursts
system.mem_ctrls.perBankWrBursts::7                 3                       # Per bank write bursts
system.mem_ctrls.perBankWrBursts::8                 3                       # Per bank write bursts
system.mem_ctrls.perBankWrBursts::9                 6                       # Per bank write bursts
system.mem_ctrls.perBankWrBursts::10               19                       # Per bank write bursts
system.mem_ctrls.perBankWrBursts::11               52                       # Per bank write bursts
system.mem_ctrls.perBankWrBursts::12              224                       # Per bank write bursts
system.mem_ctrls.perBankWrBursts::13              122                       # Per bank write bursts
system.mem_ctrls.perBankWrBursts::14              116                       # Per bank write bursts
system.mem_ctrls.perBankWrBursts::15               99                       # Per bank write bursts
system.mem_ctrls.numRdRetry                         0                       # Number of times read queue was full causing retry
system.mem_ctrls.numWrRetry                         0                       # Number of times write queue was full causing retry
system.mem_ctrls.totGap                   15267366500                       # Total gap between requests
system.mem_ctrls.readPktSize::0                     0                       # Read request sizes (log2)
system.mem_ctrls.readPktSize::1                     0                       # Read request sizes (log2)
system.mem_ctrls.readPktSize::2                     0                       # Read request sizes (log2)
system.mem_ctrls.readPktSize::3                     0                       # Read request sizes (log2)
system.mem_ctrls.readPktSize::4                     0                       # Read request sizes (log2)
system.mem_ctrls.readPktSize::5                     0                       # Read request sizes (log2)
system.mem_ctrls.readPktSize::6                159478                       # Read request sizes (log2)
system.mem_ctrls.writePktSize::0                    0                       # Write request sizes (log2)
system.mem_ctrls.writePktSize::1                    0                       # Write request sizes (log2)
system.mem_ctrls.writePktSize::2                    0                       # Write request sizes (log2)
system.mem_ctrls.writePktSize::3                    0                       # Write request sizes (log2)
system.mem_ctrls.writePktSize::4                    0                       # Write request sizes (log2)
system.mem_ctrls.writePktSize::5                    0                       # Write request sizes (log2)
system.mem_ctrls.writePktSize::6                  776                       # Write request sizes (log2)
system.mem_ctrls.rdQLenPdf::0                  123582                       # What read queue length does an incoming req see
system.mem_ctrls.rdQLenPdf::1                   33234                       # What read queue length does an incoming req see
system.mem_ctrls.rdQLenPdf::2                    2434                       # What read queue length does an incoming req see
system.mem_ctrls.rdQLenPdf::3                     113                       # What read queue length does an incoming req see
system.mem_ctrls.rdQLenPdf::4                       1                       # What read queue length does an incoming req see
system.mem_ctrls.rdQLenPdf::5                       0                       # What read queue length does an incoming req see
system.mem_ctrls.rdQLenPdf::6                       0                       # What read queue length does an incoming req see
system.mem_ctrls.rdQLenPdf::7                       0                       # What read queue length does an incoming req see
system.mem_ctrls.rdQLenPdf::8                       0                       # What read queue length does an incoming req see
system.mem_ctrls.rdQLenPdf::9                       0                       # What read queue length does an incoming req see
system.mem_ctrls.rdQLenPdf::10                      0                       # What read queue length does an incoming req see
system.mem_ctrls.rdQLenPdf::11                      0                       # What read queue length does an incoming req see
system.mem_ctrls.rdQLenPdf::12                      0                       # What read queue length does an incoming req see
system.mem_ctrls.rdQLenPdf::13                      0                       # What read queue length does an incoming req see
system.mem_ctrls.rdQLenPdf::14                      0                       # What read queue length does an incoming req see
system.mem_ctrls.rdQLenPdf::15                      0                       # What read queue length does an incoming req see
system.mem_ctrls.rdQLenPdf::16                      0                       # What read queue length does an incoming req see
system.mem_ctrls.rdQLenPdf::17                      0                       # What read queue length does an incoming req see
system.mem_ctrls.rdQLenPdf::18                      0                       # What read queue length does an incoming req see
system.mem_ctrls.rdQLenPdf::19                      0                       # What read queue length does an incoming req see
system.mem_ctrls.rdQLenPdf::20                      0                       # What read queue length does an incoming req see
system.mem_ctrls.rdQLenPdf::21                      0                       # What read queue length does an incoming req see
system.mem_ctrls.rdQLenPdf::22                      0                       # What read queue length does an incoming req see
system.mem_ctrls.rdQLenPdf::23                      0                       # What read queue length does an incoming req see
system.mem_ctrls.rdQLenPdf::24                      0                       # What read queue length does an incoming req see
system.mem_ctrls.rdQLenPdf::25                      0                       # What read queue length does an incoming req see
system.mem_ctrls.rdQLenPdf::26                      0                       # What read queue length does an incoming req see
system.mem_ctrls.rdQLenPdf::27                      0                       # What read queue length does an incoming req see
system.mem_ctrls.rdQLenPdf::28                      0                       # What read queue length does an incoming req see
system.mem_ctrls.rdQLenPdf::29                      0                       # What read queue length does an incoming req see
system.mem_ctrls.rdQLenPdf::30                      0                       # What read queue length does an incoming req see
system.mem_ctrls.rdQLenPdf::31                      0                       # What read queue length does an incoming req see
system.mem_ctrls.wrQLenPdf::0                       0                       # What write queue length does an incoming req see
system.mem_ctrls.wrQLenPdf::1                       0                       # What write queue length does an incoming req see
system.mem_ctrls.wrQLenPdf::2                       0                       # What write queue length does an incoming req see
system.mem_ctrls.wrQLenPdf::3                       0                       # What write queue length does an incoming req see
system.mem_ctrls.wrQLenPdf::4                       0                       # What write queue length does an incoming req see
system.mem_ctrls.wrQLenPdf::5                       0                       # What write queue length does an incoming req see
system.mem_ctrls.wrQLenPdf::6                       0                       # What write queue length does an incoming req see
system.mem_ctrls.wrQLenPdf::7                       0                       # What write queue length does an incoming req see
system.mem_ctrls.wrQLenPdf::8                       0                       # What write queue length does an incoming req see
system.mem_ctrls.wrQLenPdf::9                       0                       # What write queue length does an incoming req see
system.mem_ctrls.wrQLenPdf::10                      0                       # What write queue length does an incoming req see
system.mem_ctrls.wrQLenPdf::11                      0                       # What write queue length does an incoming req see
system.mem_ctrls.wrQLenPdf::12                      0                       # What write queue length does an incoming req see
system.mem_ctrls.wrQLenPdf::13                      0                       # What write queue length does an incoming req see
system.mem_ctrls.wrQLenPdf::14                      0                       # What write queue length does an incoming req see
system.mem_ctrls.wrQLenPdf::15                      6                       # What write queue length does an incoming req see
system.mem_ctrls.wrQLenPdf::16                      7                       # What write queue length does an incoming req see
system.mem_ctrls.wrQLenPdf::17                     47                       # What write queue length does an incoming req see
system.mem_ctrls.wrQLenPdf::18                     47                       # What write queue length does an incoming req see
system.mem_ctrls.wrQLenPdf::19                     47                       # What write queue length does an incoming req see
system.mem_ctrls.wrQLenPdf::20                     48                       # What write queue length does an incoming req see
system.mem_ctrls.wrQLenPdf::21                     48                       # What write queue length does an incoming req see
system.mem_ctrls.wrQLenPdf::22                     48                       # What write queue length does an incoming req see
system.mem_ctrls.wrQLenPdf::23                     48                       # What write queue length does an incoming req see
system.mem_ctrls.wrQLenPdf::24                     48                       # What write queue length does an incoming req see
system.mem_ctrls.wrQLenPdf::25                     48                       # What write queue length does an incoming req see
system.mem_ctrls.wrQLenPdf::26                     48                       # What write queue length does an incoming req see
system.mem_ctrls.wrQLenPdf::27                     48                       # What write queue length does an incoming req see
system.mem_ctrls.wrQLenPdf::28                     48                       # What write queue length does an incoming req see
system.mem_ctrls.wrQLenPdf::29                     48                       # What write queue length does an incoming req see
system.mem_ctrls.wrQLenPdf::30                     48                       # What write queue length does an incoming req see
system.mem_ctrls.wrQLenPdf::31                     47                       # What write queue length does an incoming req see
system.mem_ctrls.wrQLenPdf::32                     47                       # What write queue length does an incoming req see
system.mem_ctrls.wrQLenPdf::33                      0                       # What write queue length does an incoming req see
system.mem_ctrls.wrQLenPdf::34                      0                       # What write queue length does an incoming req see
system.mem_ctrls.wrQLenPdf::35                      0                       # What write queue length does an incoming req see
system.mem_ctrls.wrQLenPdf::36                      0                       # What write queue length does an incoming req see
system.mem_ctrls.wrQLenPdf::37                      0                       # What write queue length does an incoming req see
system.mem_ctrls.wrQLenPdf::38                      0                       # What write queue length does an incoming req see
system.mem_ctrls.wrQLenPdf::39                      0                       # What write queue length does an incoming req see
system.mem_ctrls.wrQLenPdf::40                      0                       # What write queue length does an incoming req see
system.mem_ctrls.wrQLenPdf::41                      0                       # What write queue length does an incoming req see
system.mem_ctrls.wrQLenPdf::42                      0                       # What write queue length does an incoming req see
system.mem_ctrls.wrQLenPdf::43                      0                       # What write queue length does an incoming req see
system.mem_ctrls.wrQLenPdf::44                      0                       # What write queue length does an incoming req see
system.mem_ctrls.wrQLenPdf::45                      0                       # What write queue length does an incoming req see
system.mem_ctrls.wrQLenPdf::46                      0                       # What write queue length does an incoming req see
system.mem_ctrls.wrQLenPdf::47                      0                       # What write queue length does an incoming req see
system.mem_ctrls.wrQLenPdf::48                      0                       # What write queue length does an incoming req see
system.mem_ctrls.wrQLenPdf::49                      0                       # What write queue length does an incoming req see
system.mem_ctrls.wrQLenPdf::50                      0                       # What write queue length does an incoming req see
system.mem_ctrls.wrQLenPdf::51                      0                       # What write queue length does an incoming req see
system.mem_ctrls.wrQLenPdf::52                      0                       # What write queue length does an incoming req see
system.mem_ctrls.wrQLenPdf::53                      0                       # What write queue length does an incoming req see
system.mem_ctrls.wrQLenPdf::54                      0                       # What write queue length does an incoming req see
system.mem_ctrls.wrQLenPdf::55                      0                       # What write queue length does an incoming req see
system.mem_ctrls.wrQLenPdf::56                      0                       # What write queue length does an incoming req see
system.mem_ctrls.wrQLenPdf::57                      0                       # What write queue length does an incoming req see
system.mem_ctrls.wrQLenPdf::58                      0                       # What write queue length does an incoming req see
system.mem_ctrls.wrQLenPdf::59                      0                       # What write queue length does an incoming req see
system.mem_ctrls.wrQLenPdf::60                      0                       # What write queue length does an incoming req see
system.mem_ctrls.wrQLenPdf::61                      0                       # What write queue length does an incoming req see
system.mem_ctrls.wrQLenPdf::62                      0                       # What write queue length does an incoming req see
system.mem_ctrls.wrQLenPdf::63                      0                       # What write queue length does an incoming req see
system.mem_ctrls.bytesPerActivate::samples        91810                       # Bytes accessed per row activation
system.mem_ctrls.bytesPerActivate::mean    111.635770                       # Bytes accessed per row activation
system.mem_ctrls.bytesPerActivate::gmean    97.054586                       # Bytes accessed per row activation
system.mem_ctrls.bytesPerActivate::stdev    67.410536                       # Bytes accessed per row activation
system.mem_ctrls.bytesPerActivate::0-127        50209     54.69%     54.69% # Bytes accessed per row activation
system.mem_ctrls.bytesPerActivate::128-255        35154     38.29%     92.98% # Bytes accessed per row activation
system.mem_ctrls.bytesPerActivate::256-383         5755      6.27%     99.25% # Bytes accessed per row activation
system.mem_ctrls.bytesPerActivate::384-511          619      0.67%     99.92% # Bytes accessed per row activation
system.mem_ctrls.bytesPerActivate::512-639           50      0.05%     99.97% # Bytes accessed per row activation
system.mem_ctrls.bytesPerActivate::640-767            6      0.01%     99.98% # Bytes accessed per row activation
system.mem_ctrls.bytesPerActivate::768-895            7      0.01%     99.99% # Bytes accessed per row activation
system.mem_ctrls.bytesPerActivate::896-1023            3      0.00%     99.99% # Bytes accessed per row activation
system.mem_ctrls.bytesPerActivate::1024-1151            7      0.01%    100.00% # Bytes accessed per row activation
system.mem_ctrls.bytesPerActivate::total        91810                       # Bytes accessed per row activation
system.mem_ctrls.rdPerTurnAround::samples           47                       # Reads before turning the bus around for writes
system.mem_ctrls.rdPerTurnAround::mean    3319.765957                       # Reads before turning the bus around for writes
system.mem_ctrls.rdPerTurnAround::gmean   3191.172294                       # Reads before turning the bus around for writes
system.mem_ctrls.rdPerTurnAround::stdev    951.229095                       # Reads before turning the bus around for writes
system.mem_ctrls.rdPerTurnAround::1536-1791            1      2.13%      2.13% # Reads before turning the bus around for writes
system.mem_ctrls.rdPerTurnAround::1792-2047            2      4.26%      6.38% # Reads before turning the bus around for writes
system.mem_ctrls.rdPerTurnAround::2048-2303            4      8.51%     14.89% # Reads before turning the bus around for writes
system.mem_ctrls.rdPerTurnAround::2304-2559            4      8.51%     23.40% # Reads before turning the bus around for writes
system.mem_ctrls.rdPerTurnAround::2560-2815            2      4.26%     27.66% # Reads before turning the bus around for writes
system.mem_ctrls.rdPerTurnAround::2816-3071            5     10.64%     38.30% # Reads before turning the bus around for writes
system.mem_ctrls.rdPerTurnAround::3072-3327            8     17.02%     55.32% # Reads before turning the bus around for writes
system.mem_ctrls.rdPerTurnAround::3328-3583            3      6.38%     61.70% # Reads before turning the bus around for writes
system.mem_ctrls.rdPerTurnAround::3584-3839            6     12.77%     74.47% # Reads before turning the bus around for writes
system.mem_ctrls.rdPerTurnAround::3840-4095            5     10.64%     85.11% # Reads before turning the bus around for writes
system.mem_ctrls.rdPerTurnAround::4096-4351            2      4.26%     89.36% # Reads before turning the bus around for writes
system.mem_ctrls.rdPerTurnAround::4608-4863            3      6.38%     95.74% # Reads before turning the bus around for writes
system.mem_ctrls.rdPerTurnAround::5632-5887            1      2.13%     97.87% # Reads before turning the bus around for writes
system.mem_ctrls.rdPerTurnAround::5888-6143            1      2.13%    100.00% # Reads before turning the bus around for writes
system.mem_ctrls.rdPerTurnAround::total            47                       # Reads before turning the bus around for writes
system.mem_ctrls.wrPerTurnAround::samples           47                       # Writes before turning the bus around for reads
system.mem_ctrls.wrPerTurnAround::mean      16.276596                       # Writes before turning the bus around for reads
system.mem_ctrls.wrPerTurnAround::gmean     16.263360                       # Writes before turning the bus around for reads
system.mem_ctrls.wrPerTurnAround::stdev      0.682136                       # Writes before turning the bus around for reads
system.mem_ctrls.wrPerTurnAround::16               40     85.11%     85.11% # Writes before turning the bus around for reads
system.mem_ctrls.wrPerTurnAround::17                1      2.13%     87.23% # Writes before turning the bus around for reads
system.mem_ctrls.wrPerTurnAround::18                6     12.77%    100.00% # Writes before turning the bus around for reads
system.mem_ctrls.wrPerTurnAround::total            47                       # Writes before turning the bus around for reads
system.mem_ctrls.totQLat                   4131669500                       # Total ticks spent queuing
system.mem_ctrls.totMemAccLat              7119744500                       # Total ticks spent from burst creation until serviced by the DRAM
system.mem_ctrls.totBusLat                  796820000                       # Total ticks spent in databus transfers
system.mem_ctrls.avgQLat                     25925.99                       # Average queueing delay per DRAM burst
system.mem_ctrls.avgBusLat                    5000.00                       # Average bus latency per DRAM burst
system.mem_ctrls.avgMemAccLat                44675.99                       # Average memory access latency per DRAM burst
system.mem_ctrls.avgRdBW                       668.05                       # Average DRAM read bandwidth in MiByte/s
system.mem_ctrls.avgWrBW                         3.21                       # Average achieved write bandwidth in MiByte/s
system.mem_ctrls.avgRdBWSys                    668.52                       # Average system read bandwidth in MiByte/s
system.mem_ctrls.avgWrBWSys                      3.25                       # Average system write bandwidth in MiByte/s
system.mem_ctrls.peakBW                      12800.00                       # Theoretical peak bandwidth in MiByte/s
system.mem_ctrls.busUtil                         5.24                       # Data bus utilization in percentage
system.mem_ctrls.busUtilRead                     5.22                       # Data bus utilization in percentage for reads
system.mem_ctrls.busUtilWrite                    0.03                       # Data bus utilization in percentage for writes
system.mem_ctrls.avgRdQLen                       1.26                       # Average read queue length when enqueuing
system.mem_ctrls.avgWrQLen                      25.37                       # Average write queue length when enqueuing
system.mem_ctrls.readRowHits                    67701                       # Number of row buffer hits during reads
system.mem_ctrls.writeRowHits                     623                       # Number of row buffer hits during writes
system.mem_ctrls.readRowHitRate                 42.48                       # Row buffer hit rate for reads
system.mem_ctrls.writeRowHitRate                80.28                       # Row buffer hit rate for writes
system.mem_ctrls.avgGap                      95269.80                       # Average gap between requests
system.mem_ctrls.pageHitRate                    42.67                       # Row buffer hit rate, read and write combined
system.mem_ctrls_0.actEnergy                318044160                       # Energy for activate commands per rank (pJ)
system.mem_ctrls_0.preEnergy                169055865                       # Energy for precharge commands per rank (pJ)
system.mem_ctrls_0.readEnergy               551593560                       # Energy for read commands per rank (pJ)
system.mem_ctrls_0.writeEnergy                 647280                       # Energy for write commands per rank (pJ)
system.mem_ctrls_0.refreshEnergy         1207152960.000000                       # Energy for refresh commands per rank (pJ)
system.mem_ctrls_0.actBackEnergy           1406875710                       # Energy for active background per rank (pJ)
system.mem_ctrls_0.preBackEnergy             25101600                       # Energy for precharge background per rank (pJ)
system.mem_ctrls_0.actPowerDownEnergy      5269482420                       # Energy for active power-down per rank (pJ)
system.mem_ctrls_0.prePowerDownEnergy       212277120                       # Energy for precharge power-down per rank (pJ)
system.mem_ctrls_0.selfRefreshEnergy          4137060                       # Energy for self refresh per rank (pJ)
system.mem_ctrls_0.totalEnergy             9164367735                       # Total energy per rank (pJ)
system.mem_ctrls_0.averagePower            600.259460                       # Core power per rank (mW)
system.mem_ctrls_0.totalIdleTime          12115241625                       # Total Idle time Per DRAM Rank
system.mem_ctrls_0.memoryStateTime::IDLE     10852000                       # Time in different power states
system.mem_ctrls_0.memoryStateTime::REF     510676000                       # Time in different power states
system.mem_ctrls_0.memoryStateTime::SREF      8034500                       # Time in different power states
system.mem_ctrls_0.memoryStateTime::PRE_PDN    552715000                       # Time in different power states
system.mem_ctrls_0.memoryStateTime::ACT    2629488250                       # Time in different power states
system.mem_ctrls_0.memoryStateTime::ACT_PDN  11555578375                       # Time in different power states
system.mem_ctrls_1.actEnergy                337443540                       # Energy for activate commands per rank (pJ)
system.mem_ctrls_1.preEnergy                179363085                       # Energy for precharge commands per rank (pJ)
system.mem_ctrls_1.readEnergy               586265400                       # Energy for read commands per rank (pJ)
system.mem_ctrls_1.writeEnergy                3346020                       # Energy for write commands per rank (pJ)
system.mem_ctrls_1.refreshEnergy         1205309040.000000                       # Energy for refresh commands per rank (pJ)
system.mem_ctrls_1.actBackEnergy           1482912000                       # Energy for active background per rank (pJ)
system.mem_ctrls_1.preBackEnergy             24795360                       # Energy for precharge background per rank (pJ)
system.mem_ctrls_1.actPowerDownEnergy      5258142270                       # Energy for active power-down per rank (pJ)
system.mem_ctrls_1.prePowerDownEnergy       161187360                       # Energy for precharge power-down per rank (pJ)
system.mem_ctrls_1.selfRefreshEnergy                0                       # Energy for self refresh per rank (pJ)
system.mem_ctrls_1.totalEnergy             9238764075                       # Total energy per rank (pJ)
system.mem_ctrls_1.averagePower            605.132366                       # Core power per rank (mW)
system.mem_ctrls_1.totalIdleTime          11951448125                       # Total Idle time Per DRAM Rank
system.mem_ctrls_1.memoryStateTime::IDLE      9778000                       # Time in different power states
system.mem_ctrls_1.memoryStateTime::REF     509866000                       # Time in different power states
system.mem_ctrls_1.memoryStateTime::SREF            0                       # Time in different power states
system.mem_ctrls_1.memoryStateTime::PRE_PDN    419583500                       # Time in different power states
system.mem_ctrls_1.memoryStateTime::ACT    2796252000                       # Time in different power states
system.mem_ctrls_1.memoryStateTime::ACT_PDN  11531864625                       # Time in different power states
system.pwrStateResidencyTicks::UNDEFINED  15267344125                       # Cumulative time (in ticks) in various power states
system.cpu0.branchPred.lookups                2648821                       # Number of BP lookups
system.cpu0.branchPred.condPredicted          2648821                       # Number of conditional branches predicted
system.cpu0.branchPred.condIncorrect           124360                       # Number of conditional branches incorrect
system.cpu0.branchPred.BTBLookups             2096328                       # Number of BTB lookups
system.cpu0.branchPred.BTBHits                      0                       # Number of BTB hits
system.cpu0.branchPred.BTBCorrect                   0                       # Number of correct BTB predictions (this stat may not work properly.
system.cpu0.branchPred.BTBHitPct             0.000000                       # BTB Hit Percentage
system.cpu0.branchPred.usedRAS                  93821                       # Number of times the RAS was used to get a target.
system.cpu0.branchPred.RASInCorrect             13668                       # Number of incorrect RAS predictions.
system.cpu0.branchPred.indirectLookups        2096328                       # Number of indirect predictor lookups.
system.cpu0.branchPred.indirectHits           1094239                       # Number of indirect target hits.
system.cpu0.branchPred.indirectMisses         1002089                       # Number of indirect misses.
system.cpu0.branchPredindirectMispredicted        45723                       # Number of mispredicted indirect branches.
system.cpu_voltage_domain.voltage                   1                       # Voltage in Volts
system.cpu_clk_domain.clock                       500                       # Clock period in ticks
system.cpu0.dtb.walker.pwrStateResidencyTicks::UNDEFINED  15267344125                       # Cumulative time (in ticks) in various power states
system.cpu0.dtb.rdAccesses                    1295028                       # TLB accesses on read requests
system.cpu0.dtb.wrAccesses                     112437                       # TLB accesses on write requests
system.cpu0.dtb.rdMisses                       253827                       # TLB misses on read requests
system.cpu0.dtb.wrMisses                         1907                       # TLB misses on write requests
system.cpu0.apic_clk_domain.clock                8000                       # Clock period in ticks
system.cpu0.interrupts.pwrStateResidencyTicks::UNDEFINED  15267344125                       # Cumulative time (in ticks) in various power states
system.cpu0.itb.walker.pwrStateResidencyTicks::UNDEFINED  15267344125                       # Cumulative time (in ticks) in various power states
system.cpu0.itb.rdAccesses                          0                       # TLB accesses on read requests
system.cpu0.itb.wrAccesses                    2150635                       # TLB accesses on write requests
system.cpu0.itb.rdMisses                            0                       # TLB misses on read requests
system.cpu0.itb.wrMisses                         8764                       # TLB misses on write requests
system.cpu0.workload.numSyscalls                    1                       # Number of system calls
system.cpu0.pwrStateResidencyTicks::ON    15267344125                       # Cumulative time (in ticks) in various power states
system.cpu0.numCycles                        30534689                       # number of cpu cycles simulated
system.cpu0.numWorkItemsStarted                     0                       # number of work items this cpu started
system.cpu0.numWorkItemsCompleted                   0                       # number of work items this cpu completed
system.cpu0.fetch.icacheStallCycles           2207775                       # Number of cycles fetch is stalled on an Icache miss
system.cpu0.fetch.Insts                       7918016                       # Number of instructions fetch has processed
system.cpu0.fetch.Branches                    2648821                       # Number of branches that fetch encountered
system.cpu0.fetch.predictedBranches           1188060                       # Number of branches that fetch has predicted taken
system.cpu0.fetch.Cycles                     28070592                       # Number of cycles fetch has run and was not squashing or blocked
system.cpu0.fetch.SquashCycles                 254116                       # Number of cycles fetch has spent squashing
system.cpu0.fetch.TlbCycles                      2303                       # Number of cycles fetch has spent waiting for tlb
system.cpu0.fetch.MiscStallCycles                1886                       # Number of cycles fetch has spent waiting on interrupts, or bad addresses, or out of MSHRs
system.cpu0.fetch.PendingTrapStallCycles        73507                       # Number of stall cycles due to pending traps
system.cpu0.fetch.CacheLines                  2141871                       # Number of cache lines fetched
system.cpu0.fetch.IcacheSquashes                19124                       # Number of outstanding Icache misses that were squashed
system.cpu0.fetch.ItlbSquashes                     11                       # Number of outstanding ITLB misses that were squashed
system.cpu0.fetch.rateDist::samples          30483121                       # Number of instructions fetched each cycle (Total)
system.cpu0.fetch.rateDist::mean             0.523689                       # Number of instructions fetched each cycle (Total)
system.cpu0.fetch.rateDist::stdev            1.800970                       # Number of instructions fetched each cycle (Total)
system.cpu0.fetch.rateDist::underflows              0      0.00%      0.00% # Number of instructions fetched each cycle (Total)
system.cpu0.fetch.rateDist::0                27464191     90.10%     90.10% # Number of instructions fetched each cycle (Total)
system.cpu0.fetch.rateDist::1                   38679      0.13%     90.22% # Number of instructions fetched each cycle (Total)
system.cpu0.fetch.rateDist::2                 1020206      3.35%     93.57% # Number of instructions fetched each cycle (Total)
system.cpu0.fetch.rateDist::3                   53713      0.18%     93.75% # Number of instructions fetched each cycle (Total)
system.cpu0.fetch.rateDist::4                  211348      0.69%     94.44% # Number of instructions fetched each cycle (Total)
system.cpu0.fetch.rateDist::5                  119959      0.39%     94.83% # Number of instructions fetched each cycle (Total)
system.cpu0.fetch.rateDist::6                  138050      0.45%     95.29% # Number of instructions fetched each cycle (Total)
system.cpu0.fetch.rateDist::7                   45856      0.15%     95.44% # Number of instructions fetched each cycle (Total)
system.cpu0.fetch.rateDist::8                 1391119      4.56%    100.00% # Number of instructions fetched each cycle (Total)
system.cpu0.fetch.rateDist::overflows               0      0.00%    100.00% # Number of instructions fetched each cycle (Total)
system.cpu0.fetch.rateDist::min_value               0                       # Number of instructions fetched each cycle (Total)
system.cpu0.fetch.rateDist::max_value               8                       # Number of instructions fetched each cycle (Total)
system.cpu0.fetch.rateDist::total            30483121                       # Number of instructions fetched each cycle (Total)
system.cpu0.fetch.branchRate                 0.086748                       # Number of branch fetches per cycle
system.cpu0.fetch.rate                       0.259312                       # Number of inst fetches per cycle
system.cpu0.decode.IdleCycles                 1159715                       # Number of cycles decode is idle
system.cpu0.decode.BlockedCycles             27151442                       # Number of cycles decode is blocked
system.cpu0.decode.RunCycles                  1559145                       # Number of cycles decode is running
system.cpu0.decode.UnblockCycles               485761                       # Number of cycles decode is unblocking
system.cpu0.decode.SquashCycles                127058                       # Number of cycles decode is squashing
system.cpu0.decode.DecodedInsts              13329715                       # Number of instructions handled by decode
system.cpu0.rename.SquashCycles                127058                       # Number of cycles rename is squashing
system.cpu0.rename.IdleCycles                 1332186                       # Number of cycles rename is idle
system.cpu0.rename.BlockCycles               25355085                       # Number of cycles rename is blocking
system.cpu0.rename.serializeStallCycles         27499                       # count of cycles rename stalled for serializing inst
system.cpu0.rename.RunCycles                  1765675                       # Number of cycles rename is running
system.cpu0.rename.UnblockCycles              1875618                       # Number of cycles rename is unblocking
system.cpu0.rename.RenamedInsts              12748590                       # Number of instructions processed by rename
system.cpu0.rename.ROBFullEvents                96421                       # Number of times rename has blocked due to ROB full
system.cpu0.rename.IQFullEvents               1498131                       # Number of times rename has blocked due to IQ full
system.cpu0.rename.LQFullEvents                298186                       # Number of times rename has blocked due to LQ full
system.cpu0.rename.SQFullEvents                  2326                       # Number of times rename has blocked due to SQ full
system.cpu0.rename.RenamedOperands           15178513                       # Number of destination operands rename has renamed
system.cpu0.rename.RenameLookups             35188547                       # Number of register rename lookups that rename has made
system.cpu0.rename.int_rename_lookups        16964500                       # Number of integer rename lookups
system.cpu0.rename.fp_rename_lookups            82421                       # Number of floating rename lookups
system.cpu0.rename.CommittedMaps              5420328                       # Number of HB maps that are committed
system.cpu0.rename.UndoneMaps                 9758184                       # Number of HB maps that are undone due to squashing
system.cpu0.rename.serializingInsts               653                       # count of serializing insts renamed
system.cpu0.rename.tempSerializingInsts           801                       # count of temporary serializing insts renamed
system.cpu0.rename.skidInsts                  2984969                       # count of insts added to the skid buffer
system.cpu0.memDep0.insertedLoads             2222241                       # Number of loads inserted to the mem dependence unit.
system.cpu0.memDep0.insertedStores             164434                       # Number of stores inserted to the mem dependence unit.
system.cpu0.memDep0.conflictingLoads            10230                       # Number of conflicting loads.
system.cpu0.memDep0.conflictingStores           10243                       # Number of conflicting stores.
system.cpu0.iq.iqInstsAdded                  11986288                       # Number of instructions added to the IQ (excludes non-spec)
system.cpu0.iq.iqNonSpecInstsAdded               9402                       # Number of non-speculative instructions added to the IQ
system.cpu0.iq.iqInstsIssued                  8708964                       # Number of instructions issued
system.cpu0.iq.iqSquashedInstsIssued            13256                       # Number of squashed instructions issued
system.cpu0.iq.iqSquashedInstsExamined        7478811                       # Number of squashed instructions iterated over during squash; mainly for profiling
system.cpu0.iq.iqSquashedOperandsExamined     15108491                       # Number of squashed operands that are examined and possibly removed from graph
system.cpu0.iq.iqSquashedNonSpecRemoved          9401                       # Number of squashed non-spec instructions that were removed
system.cpu0.iq.issued_per_cycle::samples     30483121                       # Number of insts issued each cycle
system.cpu0.iq.issued_per_cycle::mean        0.285698                       # Number of insts issued each cycle
system.cpu0.iq.issued_per_cycle::stdev       0.984780                       # Number of insts issued each cycle
system.cpu0.iq.issued_per_cycle::underflows            0      0.00%      0.00% # Number of insts issued each cycle
system.cpu0.iq.issued_per_cycle::0           27101501     88.91%     88.91% # Number of insts issued each cycle
system.cpu0.iq.issued_per_cycle::1            1247040      4.09%     93.00% # Number of insts issued each cycle
system.cpu0.iq.issued_per_cycle::2             703203      2.31%     95.30% # Number of insts issued each cycle
system.cpu0.iq.issued_per_cycle::3             489438      1.61%     96.91% # Number of insts issued each cycle
system.cpu0.iq.issued_per_cycle::4             510196      1.67%     98.58% # Number of insts issued each cycle
system.cpu0.iq.issued_per_cycle::5             185044      0.61%     99.19% # Number of insts issued each cycle
system.cpu0.iq.issued_per_cycle::6             146767      0.48%     99.67% # Number of insts issued each cycle
system.cpu0.iq.issued_per_cycle::7              58858      0.19%     99.87% # Number of insts issued each cycle
system.cpu0.iq.issued_per_cycle::8              41074      0.13%    100.00% # Number of insts issued each cycle
system.cpu0.iq.issued_per_cycle::overflows            0      0.00%    100.00% # Number of insts issued each cycle
system.cpu0.iq.issued_per_cycle::min_value            0                       # Number of insts issued each cycle
system.cpu0.iq.issued_per_cycle::max_value            8                       # Number of insts issued each cycle
system.cpu0.iq.issued_per_cycle::total       30483121                       # Number of insts issued each cycle
system.cpu0.iq.fu_full::No_OpClass                  0      0.00%      0.00% # attempts to use FU when none available
system.cpu0.iq.fu_full::IntAlu                  25014     72.18%     72.18% # attempts to use FU when none available
system.cpu0.iq.fu_full::IntMult                     0      0.00%     72.18% # attempts to use FU when none available
system.cpu0.iq.fu_full::IntDiv                      0      0.00%     72.18% # attempts to use FU when none available
system.cpu0.iq.fu_full::FloatAdd                 2491      7.19%     79.37% # attempts to use FU when none available
system.cpu0.iq.fu_full::FloatCmp                    0      0.00%     79.37% # attempts to use FU when none available
system.cpu0.iq.fu_full::FloatCvt                    0      0.00%     79.37% # attempts to use FU when none available
system.cpu0.iq.fu_full::FloatMult                   0      0.00%     79.37% # attempts to use FU when none available
system.cpu0.iq.fu_full::FloatMultAcc                0      0.00%     79.37% # attempts to use FU when none available
system.cpu0.iq.fu_full::FloatDiv                    0      0.00%     79.37% # attempts to use FU when none available
system.cpu0.iq.fu_full::FloatMisc                   0      0.00%     79.37% # attempts to use FU when none available
system.cpu0.iq.fu_full::FloatSqrt                   0      0.00%     79.37% # attempts to use FU when none available
system.cpu0.iq.fu_full::SimdAdd                     0      0.00%     79.37% # attempts to use FU when none available
system.cpu0.iq.fu_full::SimdAddAcc                  0      0.00%     79.37% # attempts to use FU when none available
system.cpu0.iq.fu_full::SimdAlu                     0      0.00%     79.37% # attempts to use FU when none available
system.cpu0.iq.fu_full::SimdCmp                     0      0.00%     79.37% # attempts to use FU when none available
system.cpu0.iq.fu_full::SimdCvt                     0      0.00%     79.37% # attempts to use FU when none available
system.cpu0.iq.fu_full::SimdMisc                    0      0.00%     79.37% # attempts to use FU when none available
system.cpu0.iq.fu_full::SimdMult                    0      0.00%     79.37% # attempts to use FU when none available
system.cpu0.iq.fu_full::SimdMultAcc                 0      0.00%     79.37% # attempts to use FU when none available
system.cpu0.iq.fu_full::SimdShift                   0      0.00%     79.37% # attempts to use FU when none available
system.cpu0.iq.fu_full::SimdShiftAcc                0      0.00%     79.37% # attempts to use FU when none available
system.cpu0.iq.fu_full::SimdSqrt                    0      0.00%     79.37% # attempts to use FU when none available
system.cpu0.iq.fu_full::SimdFloatAdd                0      0.00%     79.37% # attempts to use FU when none available
system.cpu0.iq.fu_full::SimdFloatAlu                0      0.00%     79.37% # attempts to use FU when none available
system.cpu0.iq.fu_full::SimdFloatCmp                0      0.00%     79.37% # attempts to use FU when none available
system.cpu0.iq.fu_full::SimdFloatCvt                0      0.00%     79.37% # attempts to use FU when none available
system.cpu0.iq.fu_full::SimdFloatDiv                0      0.00%     79.37% # attempts to use FU when none available
system.cpu0.iq.fu_full::SimdFloatMisc               0      0.00%     79.37% # attempts to use FU when none available
system.cpu0.iq.fu_full::SimdFloatMult               0      0.00%     79.37% # attempts to use FU when none available
system.cpu0.iq.fu_full::SimdFloatMultAcc            0      0.00%     79.37% # attempts to use FU when none available
system.cpu0.iq.fu_full::SimdFloatSqrt               0      0.00%     79.37% # attempts to use FU when none available
system.cpu0.iq.fu_full::MemRead                  6241     18.01%     97.37% # attempts to use FU when none available
system.cpu0.iq.fu_full::MemWrite                  593      1.71%     99.09% # attempts to use FU when none available
system.cpu0.iq.fu_full::FloatMemRead              295      0.85%     99.94% # attempts to use FU when none available
system.cpu0.iq.fu_full::FloatMemWrite              22      0.06%    100.00% # attempts to use FU when none available
system.cpu0.iq.fu_full::IprAccess                   0      0.00%    100.00% # attempts to use FU when none available
system.cpu0.iq.fu_full::InstPrefetch                0      0.00%    100.00% # attempts to use FU when none available
system.cpu0.iq.FU_type_0::No_OpClass            35590      0.41%      0.41% # Type of FU issued
system.cpu0.iq.FU_type_0::IntAlu              7127933     81.85%     82.25% # Type of FU issued
system.cpu0.iq.FU_type_0::IntMult                2466      0.03%     82.28% # Type of FU issued
system.cpu0.iq.FU_type_0::IntDiv                22974      0.26%     82.55% # Type of FU issued
system.cpu0.iq.FU_type_0::FloatAdd              30867      0.35%     82.90% # Type of FU issued
system.cpu0.iq.FU_type_0::FloatCmp                  0      0.00%     82.90% # Type of FU issued
system.cpu0.iq.FU_type_0::FloatCvt                  0      0.00%     82.90% # Type of FU issued
system.cpu0.iq.FU_type_0::FloatMult                 0      0.00%     82.90% # Type of FU issued
system.cpu0.iq.FU_type_0::FloatMultAcc              0      0.00%     82.90% # Type of FU issued
system.cpu0.iq.FU_type_0::FloatDiv                  0      0.00%     82.90% # Type of FU issued
system.cpu0.iq.FU_type_0::FloatMisc                 0      0.00%     82.90% # Type of FU issued
system.cpu0.iq.FU_type_0::FloatSqrt                 0      0.00%     82.90% # Type of FU issued
system.cpu0.iq.FU_type_0::SimdAdd                   0      0.00%     82.90% # Type of FU issued
system.cpu0.iq.FU_type_0::SimdAddAcc                0      0.00%     82.90% # Type of FU issued
system.cpu0.iq.FU_type_0::SimdAlu                   0      0.00%     82.90% # Type of FU issued
system.cpu0.iq.FU_type_0::SimdCmp                   0      0.00%     82.90% # Type of FU issued
system.cpu0.iq.FU_type_0::SimdCvt                   0      0.00%     82.90% # Type of FU issued
system.cpu0.iq.FU_type_0::SimdMisc                  0      0.00%     82.90% # Type of FU issued
system.cpu0.iq.FU_type_0::SimdMult                  0      0.00%     82.90% # Type of FU issued
system.cpu0.iq.FU_type_0::SimdMultAcc               0      0.00%     82.90% # Type of FU issued
system.cpu0.iq.FU_type_0::SimdShift                 0      0.00%     82.90% # Type of FU issued
system.cpu0.iq.FU_type_0::SimdShiftAcc              0      0.00%     82.90% # Type of FU issued
system.cpu0.iq.FU_type_0::SimdSqrt                  0      0.00%     82.90% # Type of FU issued
system.cpu0.iq.FU_type_0::SimdFloatAdd              0      0.00%     82.90% # Type of FU issued
system.cpu0.iq.FU_type_0::SimdFloatAlu              0      0.00%     82.90% # Type of FU issued
system.cpu0.iq.FU_type_0::SimdFloatCmp              0      0.00%     82.90% # Type of FU issued
system.cpu0.iq.FU_type_0::SimdFloatCvt              0      0.00%     82.90% # Type of FU issued
system.cpu0.iq.FU_type_0::SimdFloatDiv              0      0.00%     82.90% # Type of FU issued
system.cpu0.iq.FU_type_0::SimdFloatMisc             0      0.00%     82.90% # Type of FU issued
system.cpu0.iq.FU_type_0::SimdFloatMult             0      0.00%     82.90% # Type of FU issued
system.cpu0.iq.FU_type_0::SimdFloatMultAcc            0      0.00%     82.90% # Type of FU issued
system.cpu0.iq.FU_type_0::SimdFloatSqrt             0      0.00%     82.90% # Type of FU issued
system.cpu0.iq.FU_type_0::MemRead             1361777     15.64%     98.54% # Type of FU issued
system.cpu0.iq.FU_type_0::MemWrite             121099      1.39%     99.93% # Type of FU issued
system.cpu0.iq.FU_type_0::FloatMemRead           6202      0.07%    100.00% # Type of FU issued
system.cpu0.iq.FU_type_0::FloatMemWrite            56      0.00%    100.00% # Type of FU issued
system.cpu0.iq.FU_type_0::IprAccess                 0      0.00%    100.00% # Type of FU issued
system.cpu0.iq.FU_type_0::InstPrefetch              0      0.00%    100.00% # Type of FU issued
system.cpu0.iq.FU_type_0::total               8708964                       # Type of FU issued
system.cpu0.iq.rate                          0.285215                       # Inst issue rate
system.cpu0.iq.fu_busy_cnt                      34656                       # FU busy when requested
system.cpu0.iq.fu_busy_rate                  0.003979                       # FU busy rate (busy events/executed inst)
system.cpu0.iq.int_inst_queue_reads          47871408                       # Number of integer instruction queue reads
system.cpu0.iq.int_inst_queue_writes         19405990                       # Number of integer instruction queue writes
system.cpu0.iq.int_inst_queue_wakeup_accesses      8296355                       # Number of integer instruction queue wakeup accesses
system.cpu0.iq.fp_inst_queue_reads              77553                       # Number of floating instruction queue reads
system.cpu0.iq.fp_inst_queue_writes             68522                       # Number of floating instruction queue writes
system.cpu0.iq.fp_inst_queue_wakeup_accesses        33750                       # Number of floating instruction queue wakeup accesses
system.cpu0.iq.vec_inst_queue_reads                 0                       # Number of vector instruction queue reads
system.cpu0.iq.vec_inst_queue_writes                0                       # Number of vector instruction queue writes
system.cpu0.iq.vec_inst_queue_wakeup_accesses            0                       # Number of vector instruction queue wakeup accesses
system.cpu0.iq.int_alu_accesses               8668096                       # Number of integer alu accesses
system.cpu0.iq.fp_alu_accesses                  39934                       # Number of floating point alu accesses
system.cpu0.iq.vec_alu_accesses                     0                       # Number of vector alu accesses
system.cpu0.iew.lsq.thread0.forwLoads           10448                       # Number of loads that had data forwarded from stores
system.cpu0.iew.lsq.thread0.invAddrLoads            0                       # Number of loads ignored due to an invalid address
system.cpu0.iew.lsq.thread0.squashedLoads      1401312                       # Number of loads squashed
system.cpu0.iew.lsq.thread0.ignoredResponses          299                       # Number of memory responses ignored because the instruction is squashed
system.cpu0.iew.lsq.thread0.memOrderViolation           13                       # Number of memory ordering violations
system.cpu0.iew.lsq.thread0.squashedStores        97835                       # Number of stores squashed
system.cpu0.iew.lsq.thread0.invAddrSwpfs            0                       # Number of software prefetches ignored due to an invalid address
system.cpu0.iew.lsq.thread0.blockedLoads            0                       # Number of blocked loads due to partial load-store forwarding
system.cpu0.iew.lsq.thread0.rescheduledLoads           92                       # Number of loads that were rescheduled
system.cpu0.iew.lsq.thread0.cacheBlocked         2013                       # Number of times an access to memory failed due to the cache being blocked
system.cpu0.iew.iewIdleCycles                       0                       # Number of cycles IEW is idle
system.cpu0.iew.iewSquashCycles                127058                       # Number of cycles IEW is squashing
system.cpu0.iew.iewBlockCycles               22719864                       # Number of cycles IEW is blocking
system.cpu0.iew.iewUnblockCycles               350547                       # Number of cycles IEW is unblocking
system.cpu0.iew.iewDispatchedInsts           11995690                       # Number of instructions dispatched to IQ
system.cpu0.iew.iewDispSquashedInsts             7696                       # Number of squashed instructions skipped by dispatch
system.cpu0.iew.iewDispLoadInsts              2222241                       # Number of dispatched load instructions
system.cpu0.iew.iewDispStoreInsts              164434                       # Number of dispatched store instructions
system.cpu0.iew.iewDispNonSpecInsts              3548                       # Number of dispatched non-speculative instructions
system.cpu0.iew.iewIQFullEvents                 27940                       # Number of times the IQ has become full, causing a stall
system.cpu0.iew.iewLSQFullEvents                75585                       # Number of times the LSQ has become full, causing a stall
system.cpu0.iew.memOrderViolationEvents            13                       # Number of memory order violations
system.cpu0.iew.predictedTakenIncorrect         64200                       # Number of branches that were predicted taken incorrectly
system.cpu0.iew.predictedNotTakenIncorrect        78566                       # Number of branches that were predicted not taken incorrectly
system.cpu0.iew.branchMispredicts              142766                       # Number of branch mispredicts detected at execute
system.cpu0.iew.iewExecutedInsts              8514840                       # Number of executed instructions
system.cpu0.iew.iewExecLoadInsts              1294297                       # Number of load instructions executed
system.cpu0.iew.iewExecSquashedInsts           194124                       # Number of squashed instructions skipped in execute
system.cpu0.iew.exec_swp                            0                       # number of swp insts executed
system.cpu0.iew.exec_nop                            0                       # number of nop insts executed
system.cpu0.iew.exec_refs                     1406703                       # number of memory reference insts executed
system.cpu0.iew.exec_branches                 1011643                       # Number of branches executed
system.cpu0.iew.exec_stores                    112406                       # Number of stores executed
system.cpu0.iew.exec_rate                    0.278858                       # Inst execution rate
system.cpu0.iew.wb_sent                       8367257                       # cumulative count of insts sent to commit
system.cpu0.iew.wb_count                      8330105                       # cumulative count of insts written-back
system.cpu0.iew.wb_producers                  6185499                       # num instructions producing a value
system.cpu0.iew.wb_consumers                  9889376                       # num instructions consuming a value
system.cpu0.iew.wb_rate                      0.272808                       # insts written-back per cycle
system.cpu0.iew.wb_fanout                    0.625469                       # average fanout of values written-back
system.cpu0.commit.commitSquashedInsts        7479880                       # The number of squashed insts skipped by commit
system.cpu0.commit.commitNonSpecStalls              1                       # The number of times commit has been forced to stall to communicate backwards
system.cpu0.commit.branchMispredicts           127054                       # The number of times a branch was mispredicted
system.cpu0.commit.committed_per_cycle::samples     29406469                       # Number of insts commited each cycle
system.cpu0.commit.committed_per_cycle::mean     0.153602                       # Number of insts commited each cycle
system.cpu0.commit.committed_per_cycle::stdev     0.742532                       # Number of insts commited each cycle
system.cpu0.commit.committed_per_cycle::underflows            0      0.00%      0.00% # Number of insts commited each cycle
system.cpu0.commit.committed_per_cycle::0     27541083     93.66%     93.66% # Number of insts commited each cycle
system.cpu0.commit.committed_per_cycle::1       831820      2.83%     96.49% # Number of insts commited each cycle
system.cpu0.commit.committed_per_cycle::2       209473      0.71%     97.20% # Number of insts commited each cycle
system.cpu0.commit.committed_per_cycle::3       536918      1.83%     99.02% # Number of insts commited each cycle
system.cpu0.commit.committed_per_cycle::4       103819      0.35%     99.38% # Number of insts commited each cycle
system.cpu0.commit.committed_per_cycle::5        64229      0.22%     99.59% # Number of insts commited each cycle
system.cpu0.commit.committed_per_cycle::6        12699      0.04%     99.64% # Number of insts commited each cycle
system.cpu0.commit.committed_per_cycle::7         8680      0.03%     99.67% # Number of insts commited each cycle
system.cpu0.commit.committed_per_cycle::8        97748      0.33%    100.00% # Number of insts commited each cycle
system.cpu0.commit.committed_per_cycle::overflows            0      0.00%    100.00% # Number of insts commited each cycle
system.cpu0.commit.committed_per_cycle::min_value            0                       # Number of insts commited each cycle
system.cpu0.commit.committed_per_cycle::max_value            8                       # Number of insts commited each cycle
system.cpu0.commit.committed_per_cycle::total     29406469                       # Number of insts commited each cycle
system.cpu0.commit.committedInsts             2261858                       # Number of instructions committed
system.cpu0.commit.committedOps               4516879                       # Number of ops (including micro ops) committed
system.cpu0.commit.swp_count                        0                       # Number of s/w prefetches committed
system.cpu0.commit.refs                        887528                       # Number of memory references committed
system.cpu0.commit.loads                       820929                       # Number of loads committed
system.cpu0.commit.membars                          0                       # Number of memory barriers committed
system.cpu0.commit.branches                    783944                       # Number of branches committed
system.cpu0.commit.vec_insts                        0                       # Number of committed Vector instructions.
system.cpu0.commit.fp_insts                     26552                       # Number of committed floating point instructions.
system.cpu0.commit.int_insts                  4489984                       # Number of committed integer instructions.
system.cpu0.commit.function_calls               11729                       # Number of function calls committed.
system.cpu0.commit.op_class_0::No_OpClass         8038      0.18%      0.18% # Class of committed instruction
system.cpu0.commit.op_class_0::IntAlu         3578651     79.23%     79.41% # Class of committed instruction
system.cpu0.commit.op_class_0::IntMult            469      0.01%     79.42% # Class of committed instruction
system.cpu0.commit.op_class_0::IntDiv           19489      0.43%     79.85% # Class of committed instruction
system.cpu0.commit.op_class_0::FloatAdd         22704      0.50%     80.35% # Class of committed instruction
system.cpu0.commit.op_class_0::FloatCmp             0      0.00%     80.35% # Class of committed instruction
system.cpu0.commit.op_class_0::FloatCvt             0      0.00%     80.35% # Class of committed instruction
system.cpu0.commit.op_class_0::FloatMult            0      0.00%     80.35% # Class of committed instruction
system.cpu0.commit.op_class_0::FloatMultAcc            0      0.00%     80.35% # Class of committed instruction
system.cpu0.commit.op_class_0::FloatDiv             0      0.00%     80.35% # Class of committed instruction
system.cpu0.commit.op_class_0::FloatMisc            0      0.00%     80.35% # Class of committed instruction
system.cpu0.commit.op_class_0::FloatSqrt            0      0.00%     80.35% # Class of committed instruction
system.cpu0.commit.op_class_0::SimdAdd              0      0.00%     80.35% # Class of committed instruction
system.cpu0.commit.op_class_0::SimdAddAcc            0      0.00%     80.35% # Class of committed instruction
system.cpu0.commit.op_class_0::SimdAlu              0      0.00%     80.35% # Class of committed instruction
system.cpu0.commit.op_class_0::SimdCmp              0      0.00%     80.35% # Class of committed instruction
system.cpu0.commit.op_class_0::SimdCvt              0      0.00%     80.35% # Class of committed instruction
system.cpu0.commit.op_class_0::SimdMisc             0      0.00%     80.35% # Class of committed instruction
system.cpu0.commit.op_class_0::SimdMult             0      0.00%     80.35% # Class of committed instruction
system.cpu0.commit.op_class_0::SimdMultAcc            0      0.00%     80.35% # Class of committed instruction
system.cpu0.commit.op_class_0::SimdShift            0      0.00%     80.35% # Class of committed instruction
system.cpu0.commit.op_class_0::SimdShiftAcc            0      0.00%     80.35% # Class of committed instruction
system.cpu0.commit.op_class_0::SimdSqrt             0      0.00%     80.35% # Class of committed instruction
system.cpu0.commit.op_class_0::SimdFloatAdd            0      0.00%     80.35% # Class of committed instruction
system.cpu0.commit.op_class_0::SimdFloatAlu            0      0.00%     80.35% # Class of committed instruction
system.cpu0.commit.op_class_0::SimdFloatCmp            0      0.00%     80.35% # Class of committed instruction
system.cpu0.commit.op_class_0::SimdFloatCvt            0      0.00%     80.35% # Class of committed instruction
system.cpu0.commit.op_class_0::SimdFloatDiv            0      0.00%     80.35% # Class of committed instruction
system.cpu0.commit.op_class_0::SimdFloatMisc            0      0.00%     80.35% # Class of committed instruction
system.cpu0.commit.op_class_0::SimdFloatMult            0      0.00%     80.35% # Class of committed instruction
system.cpu0.commit.op_class_0::SimdFloatMultAcc            0      0.00%     80.35% # Class of committed instruction
system.cpu0.commit.op_class_0::SimdFloatSqrt            0      0.00%     80.35% # Class of committed instruction
system.cpu0.commit.op_class_0::MemRead         817081     18.09%     98.44% # Class of committed instruction
system.cpu0.commit.op_class_0::MemWrite         66599      1.47%     99.91% # Class of committed instruction
system.cpu0.commit.op_class_0::FloatMemRead         3848      0.09%    100.00% # Class of committed instruction
system.cpu0.commit.op_class_0::FloatMemWrite            0      0.00%    100.00% # Class of committed instruction
system.cpu0.commit.op_class_0::IprAccess            0      0.00%    100.00% # Class of committed instruction
system.cpu0.commit.op_class_0::InstPrefetch            0      0.00%    100.00% # Class of committed instruction
system.cpu0.commit.op_class_0::total          4516879                       # Class of committed instruction
system.cpu0.commit.bw_lim_events                97748                       # number cycles where commit BW limit reached
system.cpu0.rob.rob_reads                    41305480                       # The number of ROB reads
system.cpu0.rob.rob_writes                   25073908                       # The number of ROB writes
system.cpu0.timesIdled                            511                       # Number of times that the entire CPU went into an idle state and unscheduled itself
system.cpu0.idleCycles                          51568                       # Total number of cycles that the CPU has spent unscheduled due to idling
system.cpu0.committedInsts                    2261858                       # Number of Instructions Simulated
system.cpu0.committedOps                      4516879                       # Number of Ops (including micro ops) Simulated
system.cpu0.cpi                             13.499826                       # CPI: Cycles Per Instruction
system.cpu0.cpi_total                       13.499826                       # CPI: Total CPI of All Threads
system.cpu0.ipc                              0.074075                       # IPC: Instructions Per Cycle
system.cpu0.ipc_total                        0.074075                       # IPC: Total IPC of All Threads
system.cpu0.int_regfile_reads                 8823740                       # number of integer regfile reads
system.cpu0.int_regfile_writes                7225495                       # number of integer regfile writes
system.cpu0.fp_regfile_reads                    59564                       # number of floating regfile reads
system.cpu0.fp_regfile_writes                   29711                       # number of floating regfile writes
system.cpu0.cc_regfile_reads                  5308822                       # number of cc regfile reads
system.cpu0.cc_regfile_writes                 2340994                       # number of cc regfile writes
system.cpu0.misc_regfile_reads                4394748                       # number of misc regfile reads
system.cpu0.dcache.tags.pwrStateResidencyTicks::UNDEFINED  15267344125                       # Cumulative time (in ticks) in various power states
system.cpu0.dcache.tags.replacements           406787                       # number of replacements
system.cpu0.dcache.tags.tagsinuse                1024                       # Cycle average of tags in use
system.cpu0.dcache.tags.total_refs             632400                       # Total number of references to valid blocks.
system.cpu0.dcache.tags.sampled_refs           406787                       # Sample count of references to valid blocks.
system.cpu0.dcache.tags.avg_refs             1.554622                       # Average number of references to valid blocks.
system.cpu0.dcache.tags.warmup_cycle                0                       # Cycle when the warmup percentage was hit.
system.cpu0.dcache.tags.occ_blocks::cpu0.data         1024                       # Average occupied blocks per requestor
system.cpu0.dcache.tags.occ_percent::cpu0.data            1                       # Average percentage of cache occupancy
system.cpu0.dcache.tags.occ_percent::total            1                       # Average percentage of cache occupancy
system.cpu0.dcache.tags.occ_task_id_blocks::1024         1024                       # Occupied blocks per task id
system.cpu0.dcache.tags.age_task_id_blocks_1024::0          134                       # Occupied blocks per task id
system.cpu0.dcache.tags.age_task_id_blocks_1024::1          861                       # Occupied blocks per task id
system.cpu0.dcache.tags.age_task_id_blocks_1024::2           29                       # Occupied blocks per task id
system.cpu0.dcache.tags.occ_task_id_percent::1024            1                       # Percentage of cache occupancy per task id
system.cpu0.dcache.tags.tag_accesses          5773111                       # Number of tag accesses
system.cpu0.dcache.tags.data_accesses         5773111                       # Number of data accesses
system.cpu0.dcache.pwrStateResidencyTicks::UNDEFINED  15267344125                       # Cumulative time (in ticks) in various power states
system.cpu0.dcache.ReadReq_hits::cpu0.data       568026                       # number of ReadReq hits
system.cpu0.dcache.ReadReq_hits::total         568026                       # number of ReadReq hits
system.cpu0.dcache.WriteReq_hits::cpu0.data        64920                       # number of WriteReq hits
system.cpu0.dcache.WriteReq_hits::total         64920                       # number of WriteReq hits
system.cpu0.dcache.demand_hits::cpu0.data       632946                       # number of demand (read+write) hits
system.cpu0.dcache.demand_hits::total          632946                       # number of demand (read+write) hits
system.cpu0.dcache.overall_hits::cpu0.data       632946                       # number of overall hits
system.cpu0.dcache.overall_hits::total         632946                       # number of overall hits
system.cpu0.dcache.ReadReq_misses::cpu0.data       706956                       # number of ReadReq misses
system.cpu0.dcache.ReadReq_misses::total       706956                       # number of ReadReq misses
system.cpu0.dcache.WriteReq_misses::cpu0.data         1679                       # number of WriteReq misses
system.cpu0.dcache.WriteReq_misses::total         1679                       # number of WriteReq misses
system.cpu0.dcache.demand_misses::cpu0.data       708635                       # number of demand (read+write) misses
system.cpu0.dcache.demand_misses::total        708635                       # number of demand (read+write) misses
system.cpu0.dcache.overall_misses::cpu0.data       708635                       # number of overall misses
system.cpu0.dcache.overall_misses::total       708635                       # number of overall misses
system.cpu0.dcache.ReadReq_miss_latency::cpu0.data  33885826500                       # number of ReadReq miss cycles
system.cpu0.dcache.ReadReq_miss_latency::total  33885826500                       # number of ReadReq miss cycles
system.cpu0.dcache.WriteReq_miss_latency::cpu0.data     79054999                       # number of WriteReq miss cycles
system.cpu0.dcache.WriteReq_miss_latency::total     79054999                       # number of WriteReq miss cycles
system.cpu0.dcache.demand_miss_latency::cpu0.data  33964881499                       # number of demand (read+write) miss cycles
system.cpu0.dcache.demand_miss_latency::total  33964881499                       # number of demand (read+write) miss cycles
system.cpu0.dcache.overall_miss_latency::cpu0.data  33964881499                       # number of overall miss cycles
system.cpu0.dcache.overall_miss_latency::total  33964881499                       # number of overall miss cycles
system.cpu0.dcache.ReadReq_accesses::cpu0.data      1274982                       # number of ReadReq accesses(hits+misses)
system.cpu0.dcache.ReadReq_accesses::total      1274982                       # number of ReadReq accesses(hits+misses)
system.cpu0.dcache.WriteReq_accesses::cpu0.data        66599                       # number of WriteReq accesses(hits+misses)
system.cpu0.dcache.WriteReq_accesses::total        66599                       # number of WriteReq accesses(hits+misses)
system.cpu0.dcache.demand_accesses::cpu0.data      1341581                       # number of demand (read+write) accesses
system.cpu0.dcache.demand_accesses::total      1341581                       # number of demand (read+write) accesses
system.cpu0.dcache.overall_accesses::cpu0.data      1341581                       # number of overall (read+write) accesses
system.cpu0.dcache.overall_accesses::total      1341581                       # number of overall (read+write) accesses
[...]
system.l2.ReadExReq_miss_rate::cpu0.data     0.383463                       # miss rate for ReadExReq accesses
system.l2.ReadExReq_miss_rate::total         0.383463                       # miss rate for ReadExReq accesses
system.l2.ReadCleanReq_miss_rate::cpu0.inst            1                       # miss rate for ReadCleanReq accesses
system.l2.ReadCleanReq_miss_rate::total             1                       # miss rate for ReadCleanReq accesses
system.l2.ReadSharedReq_miss_rate::cpu0.data     0.392072                       # miss rate for ReadSharedReq accesses
system.l2.ReadSharedReq_miss_rate::total     0.392072                       # miss rate for ReadSharedReq accesses
system.l2.demand_miss_rate::cpu0.inst               1                       # miss rate for demand accesses
system.l2.demand_miss_rate::cpu0.data        0.392037                       # miss rate for demand accesses
system.l2.demand_miss_rate::total            0.392041                       # miss rate for demand accesses
system.l2.overall_miss_rate::cpu0.inst              1                       # miss rate for overall accesses
system.l2.overall_miss_rate::cpu0.data       0.392037                       # miss rate for overall accesses
system.l2.overall_miss_rate::total           0.392041                       # miss rate for overall accesses
system.l2.ReadExReq_avg_miss_latency::cpu0.data 98842.187500                       # average ReadExReq miss latency
system.l2.ReadExReq_avg_miss_latency::total 98842.187500                       # average ReadExReq miss latency
system.l2.ReadCleanReq_avg_miss_latency::cpu0.inst 96333.333333                       # average ReadCleanReq miss latency
system.l2.ReadCleanReq_avg_miss_latency::total 96333.333333                       # average ReadCleanReq miss latency
system.l2.ReadSharedReq_avg_miss_latency::cpu0.data 96180.316051                       # average ReadSharedReq miss latency
system.l2.ReadSharedReq_avg_miss_latency::total 96180.316051                       # average ReadSharedReq miss latency
system.l2.demand_avg_miss_latency::cpu0.inst 96333.333333                       # average overall miss latency
system.l2.demand_avg_miss_latency::cpu0.data 96190.998589                       # average overall miss latency
system.l2.demand_avg_miss_latency::total 96191.001267                       # average overall miss latency
system.l2.overall_avg_miss_latency::cpu0.inst 96333.333333                       # average overall miss latency
system.l2.overall_avg_miss_latency::cpu0.data 96190.998589                       # average overall miss latency
system.l2.overall_avg_miss_latency::total 96191.001267                       # average overall miss latency
system.l2.blocked_cycles::no_mshrs                  0                       # number of cycles access was blocked
system.l2.blocked_cycles::no_targets                0                       # number of cycles access was blocked
system.l2.blocked::no_mshrs                         0                       # number of cycles access was blocked
system.l2.blocked::no_targets                       0                       # number of cycles access was blocked
system.l2.avg_blocked_cycles::no_mshrs            nan                       # average number of cycles each access was blocked
system.l2.avg_blocked_cycles::no_targets          nan                       # average number of cycles each access was blocked
system.l2.writebacks::writebacks                  776                       # number of writebacks
system.l2.writebacks::total                       776                       # number of writebacks
system.l2.ReadExReq_mshr_misses::cpu0.data          640                       # number of ReadExReq MSHR misses
system.l2.ReadExReq_mshr_misses::total            640                       # number of ReadExReq MSHR misses
system.l2.ReadCleanReq_mshr_misses::cpu0.inst            3                       # number of ReadCleanReq MSHR misses
system.l2.ReadCleanReq_mshr_misses::total            3                       # number of ReadCleanReq MSHR misses
system.l2.ReadSharedReq_mshr_misses::cpu0.data       158835                       # number of ReadSharedReq MSHR misses
system.l2.ReadSharedReq_mshr_misses::total       158835                       # number of ReadSharedReq MSHR misses
system.l2.demand_mshr_misses::cpu0.inst             3                       # number of demand (read+write) MSHR misses
system.l2.demand_mshr_misses::cpu0.data        159475                       # number of demand (read+write) MSHR misses
system.l2.demand_mshr_misses::total            159478                       # number of demand (read+write) MSHR misses
system.l2.overall_mshr_misses::cpu0.inst            3                       # number of overall MSHR misses
system.l2.overall_mshr_misses::cpu0.data       159475                       # number of overall MSHR misses
system.l2.overall_mshr_misses::total           159478                       # number of overall MSHR misses
system.l2.ReadExReq_mshr_miss_latency::cpu0.data     56859000                       # number of ReadExReq MSHR miss cycles
system.l2.ReadExReq_mshr_miss_latency::total     56859000                       # number of ReadExReq MSHR miss cycles
system.l2.ReadCleanReq_mshr_miss_latency::cpu0.inst       259000                       # number of ReadCleanReq MSHR miss cycles
system.l2.ReadCleanReq_mshr_miss_latency::total       259000                       # number of ReadCleanReq MSHR miss cycles
system.l2.ReadSharedReq_mshr_miss_latency::cpu0.data  13688450500                       # number of ReadSharedReq MSHR miss cycles
system.l2.ReadSharedReq_mshr_miss_latency::total  13688450500                       # number of ReadSharedReq MSHR miss cycles
system.l2.demand_mshr_miss_latency::cpu0.inst       259000                       # number of demand (read+write) MSHR miss cycles
system.l2.demand_mshr_miss_latency::cpu0.data  13745309500                       # number of demand (read+write) MSHR miss cycles
system.l2.demand_mshr_miss_latency::total  13745568500                       # number of demand (read+write) MSHR miss cycles
system.l2.overall_mshr_miss_latency::cpu0.inst       259000                       # number of overall MSHR miss cycles
system.l2.overall_mshr_miss_latency::cpu0.data  13745309500                       # number of overall MSHR miss cycles
system.l2.overall_mshr_miss_latency::total  13745568500                       # number of overall MSHR miss cycles
system.l2.ReadExReq_mshr_miss_rate::cpu0.data     0.383463                       # mshr miss rate for ReadExReq accesses
system.l2.ReadExReq_mshr_miss_rate::total     0.383463                       # mshr miss rate for ReadExReq accesses
system.l2.ReadCleanReq_mshr_miss_rate::cpu0.inst            1                       # mshr miss rate for ReadCleanReq accesses
system.l2.ReadCleanReq_mshr_miss_rate::total            1                       # mshr miss rate for ReadCleanReq accesses
system.l2.ReadSharedReq_mshr_miss_rate::cpu0.data     0.392072                       # mshr miss rate for ReadSharedReq accesses
system.l2.ReadSharedReq_mshr_miss_rate::total     0.392072                       # mshr miss rate for ReadSharedReq accesses
system.l2.demand_mshr_miss_rate::cpu0.inst            1                       # mshr miss rate for demand accesses
system.l2.demand_mshr_miss_rate::cpu0.data     0.392037                       # mshr miss rate for demand accesses
system.l2.demand_mshr_miss_rate::total       0.392041                       # mshr miss rate for demand accesses
system.l2.overall_mshr_miss_rate::cpu0.inst            1                       # mshr miss rate for overall accesses
system.l2.overall_mshr_miss_rate::cpu0.data     0.392037                       # mshr miss rate for overall accesses
system.l2.overall_mshr_miss_rate::total      0.392041                       # mshr miss rate for overall accesses
system.l2.ReadExReq_avg_mshr_miss_latency::cpu0.data 88842.187500                       # average ReadExReq mshr miss latency
system.l2.ReadExReq_avg_mshr_miss_latency::total 88842.187500                       # average ReadExReq mshr miss latency
system.l2.ReadCleanReq_avg_mshr_miss_latency::cpu0.inst 86333.333333                       # average ReadCleanReq mshr miss latency
system.l2.ReadCleanReq_avg_mshr_miss_latency::total 86333.333333                       # average ReadCleanReq mshr miss latency
system.l2.ReadSharedReq_avg_mshr_miss_latency::cpu0.data 86180.316051                       # average ReadSharedReq mshr miss latency
system.l2.ReadSharedReq_avg_mshr_miss_latency::total 86180.316051                       # average ReadSharedReq mshr miss latency
system.l2.demand_avg_mshr_miss_latency::cpu0.inst 86333.333333                       # average overall mshr miss latency
system.l2.demand_avg_mshr_miss_latency::cpu0.data 86190.998589                       # average overall mshr miss latency
system.l2.demand_avg_mshr_miss_latency::total 86191.001267                       # average overall mshr miss latency
system.l2.overall_avg_mshr_miss_latency::cpu0.inst 86333.333333                       # average overall mshr miss latency
system.l2.overall_avg_mshr_miss_latency::cpu0.data 86190.998589                       # average overall mshr miss latency
system.l2.overall_avg_mshr_miss_latency::total 86191.001267                       # average overall mshr miss latency
system.membus.snoop_filter.tot_requests        318957                       # Total number of requests made to the snoop filter.
system.membus.snoop_filter.hit_single_requests       159479                       # Number of requests hitting in the snoop filter with a single holder of the requested data.
system.membus.snoop_filter.hit_multi_requests            0                       # Number of requests hitting in the snoop filter with multiple (>1) holders of the requested data.
system.membus.snoop_filter.tot_snoops               0                       # Total number of snoops made to the snoop filter.
system.membus.snoop_filter.hit_single_snoops            0                       # Number of snoops hitting in the snoop filter with a single holder of the requested data.
system.membus.snoop_filter.hit_multi_snoops            0                       # Number of snoops hitting in the snoop filter with multiple (>1) holders of the requested data.
system.membus.pwrStateResidencyTicks::UNDEFINED  15267344125                       # Cumulative time (in ticks) in various power states
system.membus.trans_dist::ReadResp             158837                       # Transaction distribution
system.membus.trans_dist::WritebackDirty          776                       # Transaction distribution
system.membus.trans_dist::CleanEvict           158703                       # Transaction distribution
system.membus.trans_dist::ReadExReq               640                       # Transaction distribution
system.membus.trans_dist::ReadExResp              640                       # Transaction distribution
system.membus.trans_dist::ReadSharedReq        158838                       # Transaction distribution
system.membus.pkt_count_system.l2.mem_side::system.mem_ctrls.port       478434                       # Packet count per connected master and slave (bytes)
system.membus.pkt_count_system.l2.mem_side::total       478434                       # Packet count per connected master and slave (bytes)
system.membus.pkt_count::total                 478434                       # Packet count per connected master and slave (bytes)
system.membus.pkt_size_system.l2.mem_side::system.mem_ctrls.port     10256192                       # Cumulative packet size per connected master and slave (bytes)
system.membus.pkt_size_system.l2.mem_side::total     10256192                       # Cumulative packet size per connected master and slave (bytes)
system.membus.pkt_size::total                10256192                       # Cumulative packet size per connected master and slave (bytes)
system.membus.snoops                                0                       # Total snoops (count)
system.membus.snoopTraffic                          0                       # Total snoop traffic (bytes)
system.membus.snoop_fanout::samples            159478                       # Request fanout histogram
system.membus.snoop_fanout::mean                    0                       # Request fanout histogram
system.membus.snoop_fanout::stdev                   0                       # Request fanout histogram
system.membus.snoop_fanout::underflows              0      0.00%      0.00% # Request fanout histogram
system.membus.snoop_fanout::0                  159478    100.00%    100.00% # Request fanout histogram
system.membus.snoop_fanout::1                       0      0.00%    100.00% # Request fanout histogram
system.membus.snoop_fanout::overflows               0      0.00%    100.00% # Request fanout histogram
system.membus.snoop_fanout::min_value               0                       # Request fanout histogram
system.membus.snoop_fanout::max_value               0                       # Request fanout histogram
system.membus.snoop_fanout::total              159478                       # Request fanout histogram
system.membus.reqLayer8.occupancy           373966000                       # Layer occupancy (ticks)
system.membus.reqLayer8.utilization               2.4                       # Layer utilization (%)
system.membus.respLayer1.occupancy          868281000                       # Layer occupancy (ticks)
system.membus.respLayer1.utilization              5.7                       # Layer utilization (%)
system.tol2bus.snoop_filter.tot_requests       813579                       # Total number of requests made to the snoop filter.
system.tol2bus.snoop_filter.hit_single_requests       406790                       # Number of requests hitting in the snoop filter with a single holder of the requested data.
system.tol2bus.snoop_filter.hit_multi_requests          307                       # Number of requests hitting in the snoop filter with multiple (>1) holders of the requested data.
system.tol2bus.snoop_filter.tot_snoops              3                       # Total number of snoops made to the snoop filter.
system.tol2bus.snoop_filter.hit_single_snoops            3                       # Number of snoops hitting in the snoop filter with a single holder of the requested data.
system.tol2bus.snoop_filter.hit_multi_snoops            0                       # Number of snoops hitting in the snoop filter with multiple (>1) holders of the requested data.
system.tol2bus.pwrStateResidencyTicks::UNDEFINED  15267344125                       # Cumulative time (in ticks) in various power states
system.tol2bus.trans_dist::ReadResp            405121                       # Transaction distribution
system.tol2bus.trans_dist::WritebackDirty         5858                       # Transaction distribution
system.tol2bus.trans_dist::WritebackClean            3                       # Transaction distribution
system.tol2bus.trans_dist::CleanEvict          560410                       # Transaction distribution
system.tol2bus.trans_dist::ReadExReq             1669                       # Transaction distribution
system.tol2bus.trans_dist::ReadExResp            1669                       # Transaction distribution
system.tol2bus.trans_dist::ReadCleanReq             3                       # Transaction distribution
system.tol2bus.trans_dist::ReadSharedReq       405117                       # Transaction distribution
system.tol2bus.pkt_count_system.cpu0.icache.mem_side::system.l2.cpu_side            9                       # Packet count per connected master and slave (bytes)
system.tol2bus.pkt_count_system.cpu0.dcache.mem_side::system.l2.cpu_side      1220360                       # Packet count per connected master and slave (bytes)
system.tol2bus.pkt_count::total               1220369                       # Packet count per connected master and slave (bytes)
system.tol2bus.pkt_size_system.cpu0.icache.mem_side::system.l2.cpu_side          384                       # Cumulative packet size per connected master and slave (bytes)
system.tol2bus.pkt_size_system.cpu0.dcache.mem_side::system.l2.cpu_side     26359616                       # Cumulative packet size per connected master and slave (bytes)
system.tol2bus.pkt_size::total               26360000                       # Cumulative packet size per connected master and slave (bytes)
system.tol2bus.snoops                          159481                       # Total snoops (count)
system.tol2bus.snoopTraffic                     49664                       # Total snoop traffic (bytes)
system.tol2bus.snoop_fanout::samples           566270                       # Request fanout histogram
system.tol2bus.snoop_fanout::mean            0.000547                       # Request fanout histogram
system.tol2bus.snoop_fanout::stdev           0.023391                       # Request fanout histogram
system.tol2bus.snoop_fanout::underflows             0      0.00%      0.00% # Request fanout histogram
system.tol2bus.snoop_fanout::0                 565960     99.95%     99.95% # Request fanout histogram
system.tol2bus.snoop_fanout::1                    310      0.05%    100.00% # Request fanout histogram
system.tol2bus.snoop_fanout::2                      0      0.00%    100.00% # Request fanout histogram
system.tol2bus.snoop_fanout::3                      0      0.00%    100.00% # Request fanout histogram
system.tol2bus.snoop_fanout::4                      0      0.00%    100.00% # Request fanout histogram
system.tol2bus.snoop_fanout::5                      0      0.00%    100.00% # Request fanout histogram
system.tol2bus.snoop_fanout::6                      0      0.00%    100.00% # Request fanout histogram
system.tol2bus.snoop_fanout::7                      0      0.00%    100.00% # Request fanout histogram
system.tol2bus.snoop_fanout::8                      0      0.00%    100.00% # Request fanout histogram
system.tol2bus.snoop_fanout::9                      0      0.00%    100.00% # Request fanout histogram
system.tol2bus.snoop_fanout::10                     0      0.00%    100.00% # Request fanout histogram
system.tol2bus.snoop_fanout::11                     0      0.00%    100.00% # Request fanout histogram
system.tol2bus.snoop_fanout::12                     0      0.00%    100.00% # Request fanout histogram
system.tol2bus.snoop_fanout::13                     0      0.00%    100.00% # Request fanout histogram
system.tol2bus.snoop_fanout::14                     0      0.00%    100.00% # Request fanout histogram
system.tol2bus.snoop_fanout::15                     0      0.00%    100.00% # Request fanout histogram
system.tol2bus.snoop_fanout::16                     0      0.00%    100.00% # Request fanout histogram
system.tol2bus.snoop_fanout::overflows              0      0.00%    100.00% # Request fanout histogram
system.tol2bus.snoop_fanout::min_value              0                       # Request fanout histogram
system.tol2bus.snoop_fanout::max_value              1                       # Request fanout histogram
system.tol2bus.snoop_fanout::total             566270                       # Request fanout histogram
system.tol2bus.reqLayer0.occupancy          411874500                       # Layer occupancy (ticks)
system.tol2bus.reqLayer0.utilization              2.7                       # Layer utilization (%)
system.tol2bus.respLayer0.occupancy              4500                       # Layer occupancy (ticks)
system.tol2bus.respLayer0.utilization             0.0                       # Layer utilization (%)
system.tol2bus.respLayer1.occupancy         610180500                       # Layer occupancy (ticks)
system.tol2bus.respLayer1.utilization             4.0                       # Layer utilization (%)

---------- End Simulation Statistics   ----------
