
---------- Begin Simulation Statistics ----------
sim_seconds                                  0.015267                       # Number of seconds simulated
sim_ticks                                 15267344125                       # Number of ticks simulated
final_tick                               5923729520500                       # Number of ticks from beginning of simulation (restored from checkpoints and never reset)
sim_freq                                 1000000000000                       # Frequency of simulated ticks
host_inst_rate                               75414405                       # Simulator instruction rate (inst/s)
host_op_rate                                140355523                       # Simulator op (including micro ops) rate (op/s)
host_tick_rate                              194754778                       # Simulator tick rate (ticks/s)
host_mem_usage                                2332656                       # Number of bytes of host memory used
host_seconds                                    78.39                       # Real time elapsed on the host
sim_insts                                  5911932883                       # Number of instructions simulated
sim_ops                                   11002839691                       # Number of ops (including micro ops) simulated
system.voltage_domain.voltage                       1                       # Voltage in Volts
system.clk_domain.clock                          1000                       # Clock period in ticks
system.mem_ctrls.pwrStateResidencyTicks::UNDEFINED  15267344125                       # Cumulative time (in ticks) in various power states
system.mem_ctrls.bytes_read::cpu0.data       11958592                       # Number of bytes read from this memory
system.mem_ctrls.bytes_read::total           11958592                       # Number of bytes read from this memory
system.mem_ctrls.bytes_written::writebacks        23104                       # Number of bytes written to this memory
system.mem_ctrls.bytes_written::total           23104                       # Number of bytes written to this memory
system.mem_ctrls.num_reads::cpu0.data          186853                       # Number of read requests responded to by this memory
system.mem_ctrls.num_reads::total              186853                       # Number of read requests responded to by this memory
system.mem_ctrls.num_writes::writebacks           361                       # Number of write requests responded to by this memory
system.mem_ctrls.num_writes::total                361                       # Number of write requests responded to by this memory
system.mem_ctrls.bw_read::cpu0.data         783279128                       # Total read bandwidth from this memory (bytes/s)
system.mem_ctrls.bw_read::total             783279128                       # Total read bandwidth from this memory (bytes/s)
system.mem_ctrls.bw_write::writebacks         1513295                       # Write bandwidth from this memory (bytes/s)
system.mem_ctrls.bw_write::total              1513295                       # Write bandwidth from this memory (bytes/s)
system.mem_ctrls.bw_total::writebacks         1513295                       # Total bandwidth to/from this memory (bytes/s)
system.mem_ctrls.bw_total::cpu0.data        783279128                       # Total bandwidth to/from this memory (bytes/s)
system.mem_ctrls.bw_total::total            784792424                       # Total bandwidth to/from this memory (bytes/s)
system.mem_ctrls.readReqs                      186853                       # Number of read requests accepted
system.mem_ctrls.writeReqs                        361                       # Number of write requests accepted
system.mem_ctrls.readBursts                    186853                       # Number of DRAM read bursts, including those serviced by the write queue
system.mem_ctrls.writeBursts                      361                       # Number of DRAM write bursts, including those merged in the write queue
system.mem_ctrls.bytesReadDRAM               11954816                       # Total number of bytes read from DRAM
system.mem_ctrls.bytesReadWrQ                    3776                       # Total number of bytes read from write queue
system.mem_ctrls.bytesWritten                   23808                       # Total number of bytes written to DRAM
system.mem_ctrls.bytesReadSys                11958592                       # Total read bytes from the system interface side
system.mem_ctrls.bytesWrittenSys                23104                       # Total written bytes from the system interface side
system.mem_ctrls.servicedByWrQ                     59                       # Number of DRAM read bursts serviced by the write queue
system.mem_ctrls.mergedWrBursts                     0                       # Number of DRAM write bursts merged with an existing one
system.mem_ctrls.neitherReadNorWriteReqs            0                       # Number of requests that are neither read nor write
system.mem_ctrls.perBankRdBursts::0             11709                       # Per bank write bursts
system.mem_ctrls.perBankRdBursts::1             11607                       # Per bank write bursts
system.mem_ctrls.perBankRdBursts::2             11471                       # Per bank write bursts
system.mem_ctrls.perBankRdBursts::3             11546                       # Per bank write bursts
system.mem_ctrls.perBankRdBursts::4             11458                       # Per bank write bursts
system.mem_ctrls.perBankRdBursts::5             11888                       # Per bank write bursts
system.mem_ctrls.perBankRdBursts::6             11232                       # Per bank write bursts
system.mem_ctrls.perBankRdBursts::7             11593                       # Per bank write bursts
system.mem_ctrls.perBankRdBursts::8             11443                       # Per bank write bursts
system.mem_ctrls.perBankRdBursts::9             11431                       # Per bank write bursts
system.mem_ctrls.perBankRdBursts::10            11870                       # Per bank write bursts
system.mem_ctrls.perBankRdBursts::11            11799                       # Per bank write bursts
system.mem_ctrls.perBankRdBursts::12            12226                       # Per bank write bursts
system.mem_ctrls.perBankRdBursts::13            11952                       # Per bank write bursts
system.mem_ctrls.perBankRdBursts::14            11845                       # Per bank write bursts
system.mem_ctrls.perBankRdBursts::15            11724                       # Per bank write bursts
system.mem_ctrls.perBankWrBursts::0               142                       # Per bank write bursts
system.mem_ctrls.perBankWrBursts::1                34                       # Per bank write bursts
system.mem_ctrls.perBankWrBursts::2                 0                       # Per bank write bursts
system.mem_ctrls.perBankWrBursts::3                 0                       # Per bank write bursts
system.mem_ctrls.perBankWrBursts::4                 0                       # Per bank write bursts
system.mem_ctrls.perBankWrBursts::5                 0                       # Per bank write bursts
system.mem_ctrls.perBankWrBursts::6                 0                       # Per bank write bursts
system.mem_ctrls.perBankWrBursts::7                 0                       # Per bank write bursts
system.mem_ctrls.perBankWrBursts::8                 0                       # Per bank write bursts
system.mem_ctrls.perBankWrBursts::9                 0                       # Per bank write bursts
system.mem_ctrls.perBankWrBursts::10                0                       # Per bank write bursts
system.mem_ctrls.perBankWrBursts::11                0                       # Per bank write bursts
system.mem_ctrls.perBankWrBursts::12              103                       # Per bank write bursts
system.mem_ctrls.perBankWrBursts::13                1                       # Per bank write bursts
system.mem_ctrls.perBankWrBursts::14                3                       # Per bank write bursts
system.mem_ctrls.perBankWrBursts::15               89                       # Per bank write bursts
system.mem_ctrls.numRdRetry                         0                       # Number of times read queue was full causing retry
system.mem_ctrls.numWrRetry                         0                       # Number of times write queue was full causing retry
system.mem_ctrls.totGap                   15267362000                       # Total gap between requests
system.mem_ctrls.readPktSize::0                     0                       # Read request sizes (log2)
system.mem_ctrls.readPktSize::1                     0                       # Read request sizes (log2)
system.mem_ctrls.readPktSize::2                     0                       # Read request sizes (log2)
system.mem_ctrls.readPktSize::3                     0                       # Read request sizes (log2)
system.mem_ctrls.readPktSize::4                     0                       # Read request sizes (log2)
system.mem_ctrls.readPktSize::5                     0                       # Read request sizes (log2)
system.mem_ctrls.readPktSize::6                186853                       # Read request sizes (log2)
system.mem_ctrls.writePktSize::0                    0                       # Write request sizes (log2)
system.mem_ctrls.writePktSize::1                    0                       # Write request sizes (log2)
system.mem_ctrls.writePktSize::2                    0                       # Write request sizes (log2)
system.mem_ctrls.writePktSize::3                    0                       # Write request sizes (log2)
system.mem_ctrls.writePktSize::4                    0                       # Write request sizes (log2)
system.mem_ctrls.writePktSize::5                    0                       # Write request sizes (log2)
system.mem_ctrls.writePktSize::6                  361                       # Write request sizes (log2)
system.mem_ctrls.rdQLenPdf::0                  141973                       # What read queue length does an incoming req see
system.mem_ctrls.rdQLenPdf::1                   41772                       # What read queue length does an incoming req see
system.mem_ctrls.rdQLenPdf::2                    2976                       # What read queue length does an incoming req see
system.mem_ctrls.rdQLenPdf::3                      73                       # What read queue length does an incoming req see
system.mem_ctrls.rdQLenPdf::4                       0                       # What read queue length does an incoming req see
system.mem_ctrls.rdQLenPdf::5                       0                       # What read queue length does an incoming req see
system.mem_ctrls.rdQLenPdf::6                       0                       # What read queue length does an incoming req see
system.mem_ctrls.rdQLenPdf::7                       0                       # What read queue length does an incoming req see
system.mem_ctrls.rdQLenPdf::8                       0                       # What read queue length does an incoming req see
system.mem_ctrls.rdQLenPdf::9                       0                       # What read queue length does an incoming req see
system.mem_ctrls.rdQLenPdf::10                      0                       # What read queue length does an incoming req see
system.mem_ctrls.rdQLenPdf::11                      0                       # What read queue length does an incoming req see
system.mem_ctrls.rdQLenPdf::12                      0                       # What read queue length does an incoming req see
system.mem_ctrls.rdQLenPdf::13                      0                       # What read queue length does an incoming req see
system.mem_ctrls.rdQLenPdf::14                      0                       # What read queue length does an incoming req see
system.mem_ctrls.rdQLenPdf::15                      0                       # What read queue length does an incoming req see
system.mem_ctrls.rdQLenPdf::16                      0                       # What read queue length does an incoming req see
system.mem_ctrls.rdQLenPdf::17                      0                       # What read queue length does an incoming req see
system.mem_ctrls.rdQLenPdf::18                      0                       # What read queue length does an incoming req see
system.mem_ctrls.rdQLenPdf::19                      0                       # What read queue length does an incoming req see
system.mem_ctrls.rdQLenPdf::20                      0                       # What read queue length does an incoming req see
system.mem_ctrls.rdQLenPdf::21                      0                       # What read queue length does an incoming req see
system.mem_ctrls.rdQLenPdf::22                      0                       # What read queue length does an incoming req see
system.mem_ctrls.rdQLenPdf::23                      0                       # What read queue length does an incoming req see
system.mem_ctrls.rdQLenPdf::24                      0                       # What read queue length does an incoming req see
system.mem_ctrls.rdQLenPdf::25                      0                       # What read queue length does an incoming req see
system.mem_ctrls.rdQLenPdf::26                      0                       # What read queue length does an incoming req see
system.mem_ctrls.rdQLenPdf::27                      0                       # What read queue length does an incoming req see
system.mem_ctrls.rdQLenPdf::28                      0                       # What read queue length does an incoming req see
system.mem_ctrls.rdQLenPdf::29                      0                       # What read queue length does an incoming req see
system.mem_ctrls.rdQLenPdf::30                      0                       # What read queue length does an incoming req see
system.mem_ctrls.rdQLenPdf::31                      0                       # What read queue length does an incoming req see
system.mem_ctrls.wrQLenPdf::0                       0                       # What write queue length does an incoming req see
system.mem_ctrls.wrQLenPdf::1                       0                       # What write queue length does an incoming req see
system.mem_ctrls.wrQLenPdf::2                       0                       # What write queue length does an incoming req see
system.mem_ctrls.wrQLenPdf::3                       0                       # What write queue length does an incoming req see
system.mem_ctrls.wrQLenPdf::4                       0                       # What write queue length does an incoming req see
system.mem_ctrls.wrQLenPdf::5                       0                       # What write queue length does an incoming req see
system.mem_ctrls.wrQLenPdf::6                       0                       # What write queue length does an incoming req see
system.mem_ctrls.wrQLenPdf::7                       0                       # What write queue length does an incoming req see
system.mem_ctrls.wrQLenPdf::8                       0                       # What write queue length does an incoming req see
system.mem_ctrls.wrQLenPdf::9                       0                       # What write queue length does an incoming req see
system.mem_ctrls.wrQLenPdf::10                      0                       # What write queue length does an incoming req see
system.mem_ctrls.wrQLenPdf::11                      0                       # What write queue length does an incoming req see
system.mem_ctrls.wrQLenPdf::12                      0                       # What write queue length does an incoming req see
system.mem_ctrls.wrQLenPdf::13                      0                       # What write queue length does an incoming req see
system.mem_ctrls.wrQLenPdf::14                      0                       # What write queue length does an incoming req see
system.mem_ctrls.wrQLenPdf::15                      2                       # What write queue length does an incoming req see
system.mem_ctrls.wrQLenPdf::16                      2                       # What write queue length does an incoming req see
system.mem_ctrls.wrQLenPdf::17                     22                       # What write queue length does an incoming req see
system.mem_ctrls.wrQLenPdf::18                     22                       # What write queue length does an incoming req see
system.mem_ctrls.wrQLenPdf::19                     22                       # What write queue length does an incoming req see
system.mem_ctrls.wrQLenPdf::20                     22                       # What write queue length does an incoming req see
system.mem_ctrls.wrQLenPdf::21                     22                       # What write queue length does an incoming req see
system.mem_ctrls.wrQLenPdf::22                     22                       # What write queue length does an incoming req see
system.mem_ctrls.wrQLenPdf::23                     22                       # What write queue length does an incoming req see
system.mem_ctrls.wrQLenPdf::24                     22                       # What write queue length does an incoming req see
system.mem_ctrls.wrQLenPdf::25                     22                       # What write queue length does an incoming req see
system.mem_ctrls.wrQLenPdf::26                     22                       # What write queue length does an incoming req see
system.mem_ctrls.wrQLenPdf::27                     22                       # What write queue length does an incoming req see
system.mem_ctrls.wrQLenPdf::28                     23                       # What write queue length does an incoming req see
system.mem_ctrls.wrQLenPdf::29                     23                       # What write queue length does an incoming req see
system.mem_ctrls.wrQLenPdf::30                     23                       # What write queue length does an incoming req see
system.mem_ctrls.wrQLenPdf::31                     23                       # What write queue length does an incoming req see
system.mem_ctrls.wrQLenPdf::32                     23                       # What write queue length does an incoming req see
system.mem_ctrls.wrQLenPdf::33                      0                       # What write queue length does an incoming req see
system.mem_ctrls.wrQLenPdf::34                      0                       # What write queue length does an incoming req see
system.mem_ctrls.wrQLenPdf::35                      0                       # What write queue length does an incoming req see
system.mem_ctrls.wrQLenPdf::36                      0                       # What write queue length does an incoming req see
system.mem_ctrls.wrQLenPdf::37                      0                       # What write queue length does an incoming req see
system.mem_ctrls.wrQLenPdf::38                      0                       # What write queue length does an incoming req see
system.mem_ctrls.wrQLenPdf::39                      0                       # What write queue length does an incoming req see
system.mem_ctrls.wrQLenPdf::40                      0                       # What write queue length does an incoming req see
system.mem_ctrls.wrQLenPdf::41                      0                       # What write queue length does an incoming req see
system.mem_ctrls.wrQLenPdf::42                      0                       # What write queue length does an incoming req see
system.mem_ctrls.wrQLenPdf::43                      0                       # What write queue length does an incoming req see
system.mem_ctrls.wrQLenPdf::44                      0                       # What write queue length does an incoming req see
system.mem_ctrls.wrQLenPdf::45                      0                       # What write queue length does an incoming req see
system.mem_ctrls.wrQLenPdf::46                      0                       # What write queue length does an incoming req see
system.mem_ctrls.wrQLenPdf::47                      0                       # What write queue length does an incoming req see
system.mem_ctrls.wrQLenPdf::48                      0                       # What write queue length does an incoming req see
system.mem_ctrls.wrQLenPdf::49                      0                       # What write queue length does an incoming req see
system.mem_ctrls.wrQLenPdf::50                      0                       # What write queue length does an incoming req see
system.mem_ctrls.wrQLenPdf::51                      0                       # What write queue length does an incoming req see
system.mem_ctrls.wrQLenPdf::52                      0                       # What write queue length does an incoming req see
system.mem_ctrls.wrQLenPdf::53                      0                       # What write queue length does an incoming req see
system.mem_ctrls.wrQLenPdf::54                      0                       # What write queue length does an incoming req see
system.mem_ctrls.wrQLenPdf::55                      0                       # What write queue length does an incoming req see
system.mem_ctrls.wrQLenPdf::56                      0                       # What write queue length does an incoming req see
system.mem_ctrls.wrQLenPdf::57                      0                       # What write queue length does an incoming req see
system.mem_ctrls.wrQLenPdf::58                      0                       # What write queue length does an incoming req see
system.mem_ctrls.wrQLenPdf::59                      0                       # What write queue length does an incoming req see
system.mem_ctrls.wrQLenPdf::60                      0                       # What write queue length does an incoming req see
system.mem_ctrls.wrQLenPdf::61                      0                       # What write queue length does an incoming req see
system.mem_ctrls.wrQLenPdf::62                      0                       # What write queue length does an incoming req see
system.mem_ctrls.wrQLenPdf::63                      0                       # What write queue length does an incoming req see
system.mem_ctrls.bytesPerActivate::samples        97420                       # Bytes accessed per row activation
system.mem_ctrls.bytesPerActivate::mean    122.951345                       # Bytes accessed per row activation
system.mem_ctrls.bytesPerActivate::gmean   106.018127                       # Bytes accessed per row activation
system.mem_ctrls.bytesPerActivate::stdev    73.719908                       # Bytes accessed per row activation
system.mem_ctrls.bytesPerActivate::0-127        45366     46.57%     46.57% # Bytes accessed per row activation
system.mem_ctrls.bytesPerActivate::128-255        42587     43.71%     90.28% # Bytes accessed per row activation
system.mem_ctrls.bytesPerActivate::256-383         8291      8.51%     98.79% # Bytes accessed per row activation
system.mem_ctrls.bytesPerActivate::384-511         1056      1.08%     99.88% # Bytes accessed per row activation
system.mem_ctrls.bytesPerActivate::512-639           98      0.10%     99.98% # Bytes accessed per row activation
system.mem_ctrls.bytesPerActivate::640-767            6      0.01%     99.98% # Bytes accessed per row activation
system.mem_ctrls.bytesPerActivate::768-895            2      0.00%     99.99% # Bytes accessed per row activation
system.mem_ctrls.bytesPerActivate::896-1023            3      0.00%     99.99% # Bytes accessed per row activation
system.mem_ctrls.bytesPerActivate::1024-1151           11      0.01%    100.00% # Bytes accessed per row activation
system.mem_ctrls.bytesPerActivate::total        97420                       # Bytes accessed per row activation
system.mem_ctrls.rdPerTurnAround::samples           23                       # Reads before turning the bus around for writes
system.mem_ctrls.rdPerTurnAround::mean    8273.869565                       # Reads before turning the bus around for writes
system.mem_ctrls.rdPerTurnAround::gmean   8071.745119                       # Reads before turning the bus around for writes
system.mem_ctrls.rdPerTurnAround::stdev   1958.175108                       # Reads before turning the bus around for writes
system.mem_ctrls.rdPerTurnAround::5120-5631            1      4.35%      4.35% # Reads before turning the bus around for writes
system.mem_ctrls.rdPerTurnAround::5632-6143            1      4.35%      8.70% # Reads before turning the bus around for writes
system.mem_ctrls.rdPerTurnAround::6144-6655            1      4.35%     13.04% # Reads before turning the bus around for writes
system.mem_ctrls.rdPerTurnAround::6656-7167            5     21.74%     34.78% # Reads before turning the bus around for writes
system.mem_ctrls.rdPerTurnAround::7168-7679            3     13.04%     47.83% # Reads before turning the bus around for writes
system.mem_ctrls.rdPerTurnAround::7680-8191            1      4.35%     52.17% # Reads before turning the bus around for writes
system.mem_ctrls.rdPerTurnAround::8192-8703            4     17.39%     69.57% # Reads before turning the bus around for writes
system.mem_ctrls.rdPerTurnAround::9216-9727            2      8.70%     78.26% # Reads before turning the bus around for writes
system.mem_ctrls.rdPerTurnAround::9728-10239            2      8.70%     86.96% # Reads before turning the bus around for writes
system.mem_ctrls.rdPerTurnAround::10240-10751            1      4.35%     91.30% # Reads before turning the bus around for writes
system.mem_ctrls.rdPerTurnAround::12288-12799            1      4.35%     95.65% # Reads before turning the bus around for writes
system.mem_ctrls.rdPerTurnAround::12800-13311            1      4.35%    100.00% # Reads before turning the bus around for writes
system.mem_ctrls.rdPerTurnAround::total            23                       # Reads before turning the bus around for writes
system.mem_ctrls.wrPerTurnAround::samples           23                       # Writes before turning the bus around for reads
system.mem_ctrls.wrPerTurnAround::mean      16.173913                       # Writes before turning the bus around for reads
system.mem_ctrls.wrPerTurnAround::gmean     16.164714                       # Writes before turning the bus around for reads
system.mem_ctrls.wrPerTurnAround::stdev      0.576208                       # Writes before turning the bus around for reads
system.mem_ctrls.wrPerTurnAround::16               21     91.30%     91.30% # Writes before turning the bus around for reads
system.mem_ctrls.wrPerTurnAround::18                2      8.70%    100.00% # Writes before turning the bus around for reads
system.mem_ctrls.wrPerTurnAround::total            23                       # Writes before turning the bus around for reads
system.mem_ctrls.totQLat                   4594370500                       # Total ticks spent queuing
system.mem_ctrls.totMemAccLat              8096758000                       # Total ticks spent from burst creation until serviced by the DRAM
system.mem_ctrls.totBusLat                  933970000                       # Total ticks spent in databus transfers
system.mem_ctrls.avgQLat                     24595.92                       # Average queueing delay per DRAM burst
system.mem_ctrls.avgBusLat                    5000.00                       # Average bus latency per DRAM burst
system.mem_ctrls.avgMemAccLat                43345.92                       # Average memory access latency per DRAM burst
system.mem_ctrls.avgRdBW                       783.03                       # Average DRAM read bandwidth in MiByte/s
system.mem_ctrls.avgWrBW                         1.56                       # Average achieved write bandwidth in MiByte/s
system.mem_ctrls.avgRdBWSys                    783.28                       # Average system read bandwidth in MiByte/s
system.mem_ctrls.avgWrBWSys                      1.51                       # Average system write bandwidth in MiByte/s
system.mem_ctrls.peakBW                      12800.00                       # Theoretical peak bandwidth in MiByte/s
system.mem_ctrls.busUtil                         6.13                       # Data bus utilization in percentage
system.mem_ctrls.busUtilRead                     6.12                       # Data bus utilization in percentage for reads
system.mem_ctrls.busUtilWrite                    0.01                       # Data bus utilization in percentage for writes
system.mem_ctrls.avgRdQLen                       1.31                       # Average read queue length when enqueuing
system.mem_ctrls.avgWrQLen                      25.28                       # Average write queue length when enqueuing
system.mem_ctrls.readRowHits                    89417                       # Number of row buffer hits during reads
system.mem_ctrls.writeRowHits                     324                       # Number of row buffer hits during writes
system.mem_ctrls.readRowHitRate                 47.87                       # Row buffer hit rate for reads
system.mem_ctrls.writeRowHitRate                89.75                       # Row buffer hit rate for writes
system.mem_ctrls.avgGap                      81550.32                       # Average gap between requests
system.mem_ctrls.pageHitRate                    47.95                       # Row buffer hit rate, read and write combined
system.mem_ctrls_0.actEnergy                346311420                       # Energy for activate commands per rank (pJ)
system.mem_ctrls_0.preEnergy                184049910                       # Energy for precharge commands per rank (pJ)
system.mem_ctrls_0.readEnergy               660471420                       # Energy for read commands per rank (pJ)
system.mem_ctrls_0.writeEnergy                 918720                       # Energy for write commands per rank (pJ)
system.mem_ctrls_0.refreshEnergy         1204694400.000000                       # Energy for refresh commands per rank (pJ)
system.mem_ctrls_0.actBackEnergy           1585197360                       # Energy for active background per rank (pJ)
system.mem_ctrls_0.preBackEnergy             24096960                       # Energy for precharge background per rank (pJ)
system.mem_ctrls_0.actPowerDownEnergy      5188131450                       # Energy for active power-down per rank (pJ)
system.mem_ctrls_0.prePowerDownEnergy       134707200                       # Energy for precharge power-down per rank (pJ)
system.mem_ctrls_0.selfRefreshEnergy                0                       # Energy for self refresh per rank (pJ)
system.mem_ctrls_0.totalEnergy             9328578840                       # Total energy per rank (pJ)
system.mem_ctrls_0.averagePower            611.015168                       # Core power per rank (mW)
system.mem_ctrls_0.totalIdleTime          11728008500                       # Total Idle time Per DRAM Rank
system.mem_ctrls_0.memoryStateTime::IDLE      9408000                       # Time in different power states
system.mem_ctrls_0.memoryStateTime::REF     509600000                       # Time in different power states
system.mem_ctrls_0.memoryStateTime::SREF            0                       # Time in different power states
system.mem_ctrls_0.memoryStateTime::PRE_PDN    351148000                       # Time in different power states
system.mem_ctrls_0.memoryStateTime::ACT    3020327625                       # Time in different power states
system.mem_ctrls_0.memoryStateTime::ACT_PDN  11376860500                       # Time in different power states
system.mem_ctrls_1.actEnergy                349303080                       # Energy for activate commands per rank (pJ)
system.mem_ctrls_1.preEnergy                185658990                       # Energy for precharge commands per rank (pJ)
system.mem_ctrls_1.readEnergy               673230600                       # Energy for read commands per rank (pJ)
system.mem_ctrls_1.writeEnergy                1023120                       # Energy for write commands per rank (pJ)
system.mem_ctrls_1.refreshEnergy         1205923680.000000                       # Energy for refresh commands per rank (pJ)
system.mem_ctrls_1.actBackEnergy           1601900640                       # Energy for active background per rank (pJ)
system.mem_ctrls_1.preBackEnergy             24993600                       # Energy for precharge background per rank (pJ)
system.mem_ctrls_1.actPowerDownEnergy      5188024290                       # Energy for active power-down per rank (pJ)
system.mem_ctrls_1.prePowerDownEnergy       117056160                       # Energy for precharge power-down per rank (pJ)
system.mem_ctrls_1.selfRefreshEnergy          2841180                       # Energy for self refresh per rank (pJ)
system.mem_ctrls_1.totalEnergy             9349955340                       # Total energy per rank (pJ)
system.mem_ctrls_1.averagePower            612.415314                       # Core power per rank (mW)
system.mem_ctrls_1.totalIdleTime          11688286625                       # Total Idle time Per DRAM Rank
system.mem_ctrls_1.memoryStateTime::IDLE     10693750                       # Time in different power states
system.mem_ctrls_1.memoryStateTime::REF     510132000                       # Time in different power states
system.mem_ctrls_1.memoryStateTime::SREF      7235000                       # Time in different power states
system.mem_ctrls_1.memoryStateTime::PRE_PDN    304531000                       # Time in different power states
system.mem_ctrls_1.memoryStateTime::ACT    3057520500                       # Time in different power states
system.mem_ctrls_1.memoryStateTime::ACT_PDN  11377231875                       # Time in different power states
system.pwrStateResidencyTicks::UNDEFINED  15267344125                       # Cumulative time (in ticks) in various power states
system.cpu0.branchPred.lookups                1849988                       # Number of BP lookups
system.cpu0.branchPred.condPredicted          1849988                       # Number of conditional branches predicted
system.cpu0.branchPred.condIncorrect            74937                       # Number of conditional branches incorrect
system.cpu0.branchPred.BTBLookups             1454949                       # Number of BTB lookups
system.cpu0.branchPred.BTBHits                      0                       # Number of BTB hits
system.cpu0.branchPred.BTBCorrect                   0                       # Number of correct BTB predictions (this stat may not work properly.
system.cpu0.branchPred.BTBHitPct             0.000000                       # BTB Hit Percentage
system.cpu0.branchPred.usedRAS                  45051                       # Number of times the RAS was used to get a target.
system.cpu0.branchPred.RASInCorrect              6686                       # Number of incorrect RAS predictions.
system.cpu0.branchPred.indirectLookups        1454949                       # Number of indirect predictor lookups.
system.cpu0.branchPred.indirectHits            794813                       # Number of indirect target hits.
system.cpu0.branchPred.indirectMisses          660136                       # Number of indirect misses.
system.cpu0.branchPredindirectMispredicted        23268                       # Number of mispredicted indirect branches.
system.cpu_voltage_domain.voltage                   1                       # Voltage in Volts
system.cpu_clk_domain.clock                       500                       # Clock period in ticks
system.cpu0.dtb.walker.pwrStateResidencyTicks::UNDEFINED  15267344125                       # Cumulative time (in ticks) in various power states
system.cpu0.dtb.rdAccesses                     845518                       # TLB accesses on read requests
system.cpu0.dtb.wrAccesses                      51838                       # TLB accesses on write requests
system.cpu0.dtb.rdMisses                       174222                       # TLB misses on read requests
system.cpu0.dtb.wrMisses                          832                       # TLB misses on write requests
system.cpu0.apic_clk_domain.clock                8000                       # Clock period in ticks
system.cpu0.interrupts.pwrStateResidencyTicks::UNDEFINED  15267344125                       # Cumulative time (in ticks) in various power states
system.cpu0.itb.walker.pwrStateResidencyTicks::UNDEFINED  15267344125                       # Cumulative time (in ticks) in various power states
system.cpu0.itb.rdAccesses                          0                       # TLB accesses on read requests
system.cpu0.itb.wrAccesses                    1557612                       # TLB accesses on write requests
system.cpu0.itb.rdMisses                            0                       # TLB misses on read requests
system.cpu0.itb.wrMisses                         4527                       # TLB misses on write requests
system.cpu0.workload.numSyscalls                    0                       # Number of system calls
system.cpu0.pwrStateResidencyTicks::ON    15267344125                       # Cumulative time (in ticks) in various power states
system.cpu0.numCycles                        30534689                       # number of cpu cycles simulated
system.cpu0.numWorkItemsStarted                     0                       # number of work items this cpu started
system.cpu0.numWorkItemsCompleted                   0                       # number of work items this cpu completed
system.cpu0.fetch.icacheStallCycles           1591163                       # Number of cycles fetch is stalled on an Icache miss
system.cpu0.fetch.Insts                       5315059                       # Number of instructions fetch has processed
system.cpu0.fetch.Branches                    1849988                       # Number of branches that fetch encountered
system.cpu0.fetch.predictedBranches            839864                       # Number of branches that fetch has predicted taken
system.cpu0.fetch.Cycles                     28788175                       # Number of cycles fetch has run and was not squashing or blocked
system.cpu0.fetch.SquashCycles                 152660                       # Number of cycles fetch has spent squashing
system.cpu0.fetch.TlbCycles                      2754                       # Number of cycles fetch has spent waiting for tlb
system.cpu0.fetch.MiscStallCycles                1087                       # Number of cycles fetch has spent waiting on interrupts, or bad addresses, or out of MSHRs
system.cpu0.fetch.PendingTrapStallCycles        37887                       # Number of stall cycles due to pending traps
system.cpu0.fetch.CacheLines                  1553085                       # Number of cache lines fetched
system.cpu0.fetch.IcacheSquashes                 9318                       # Number of outstanding Icache misses that were squashed
system.cpu0.fetch.ItlbSquashes                     11                       # Number of outstanding ITLB misses that were squashed
system.cpu0.fetch.rateDist::samples          30497396                       # Number of instructions fetched each cycle (Total)
system.cpu0.fetch.rateDist::mean             0.350042                       # Number of instructions fetched each cycle (Total)
system.cpu0.fetch.rateDist::stdev            1.484865                       # Number of instructions fetched each cycle (Total)
system.cpu0.fetch.rateDist::underflows              0      0.00%      0.00% # Number of instructions fetched each cycle (Total)
system.cpu0.fetch.rateDist::0                28417874     93.18%     93.18% # Number of instructions fetched each cycle (Total)
system.cpu0.fetch.rateDist::1                   27866      0.09%     93.27% # Number of instructions fetched each cycle (Total)
system.cpu0.fetch.rateDist::2                  776785      2.55%     95.82% # Number of instructions fetched each cycle (Total)
system.cpu0.fetch.rateDist::3                   26465      0.09%     95.91% # Number of instructions fetched each cycle (Total)
system.cpu0.fetch.rateDist::4                  145298      0.48%     96.38% # Number of instructions fetched each cycle (Total)
system.cpu0.fetch.rateDist::5                   62341      0.20%     96.59% # Number of instructions fetched each cycle (Total)
system.cpu0.fetch.rateDist::6                   90095      0.30%     96.88% # Number of instructions fetched each cycle (Total)
system.cpu0.fetch.rateDist::7                   24314      0.08%     96.96% # Number of instructions fetched each cycle (Total)
system.cpu0.fetch.rateDist::8                  926358      3.04%    100.00% # Number of instructions fetched each cycle (Total)
system.cpu0.fetch.rateDist::overflows               0      0.00%    100.00% # Number of instructions fetched each cycle (Total)
system.cpu0.fetch.rateDist::min_value               0                       # Number of instructions fetched each cycle (Total)
system.cpu0.fetch.rateDist::max_value               8                       # Number of instructions fetched each cycle (Total)
system.cpu0.fetch.rateDist::total            30497396                       # Number of instructions fetched each cycle (Total)
system.cpu0.fetch.branchRate                 0.060586                       # Number of branch fetches per cycle
system.cpu0.fetch.rate                       0.174066                       # Number of inst fetches per cycle
system.cpu0.decode.IdleCycles                  787275                       # Number of cycles decode is idle
system.cpu0.decode.BlockedCycles             28270690                       # Number of cycles decode is blocked
system.cpu0.decode.RunCycles                  1012727                       # Number of cycles decode is running
system.cpu0.decode.UnblockCycles               350374                       # Number of cycles decode is unblocking
system.cpu0.decode.SquashCycles                 76330                       # Number of cycles decode is squashing
system.cpu0.decode.DecodedInsts               8777133                       # Number of instructions handled by decode
system.cpu0.rename.SquashCycles                 76330                       # Number of cycles rename is squashing
system.cpu0.rename.IdleCycles                  894401                       # Number of cycles rename is idle
system.cpu0.rename.BlockCycles               26911993                       # Number of cycles rename is blocking
system.cpu0.rename.serializeStallCycles         12230                       # count of cycles rename stalled for serializing inst
system.cpu0.rename.RunCycles                  1171129                       # Number of cycles rename is running
system.cpu0.rename.UnblockCycles              1431313                       # Number of cycles rename is unblocking
system.cpu0.rename.RenamedInsts               8429189                       # Number of instructions processed by rename
system.cpu0.rename.ROBFullEvents                68719                       # Number of times rename has blocked due to ROB full
system.cpu0.rename.IQFullEvents               1145489                       # Number of times rename has blocked due to IQ full
system.cpu0.rename.LQFullEvents                236146                       # Number of times rename has blocked due to LQ full
system.cpu0.rename.SQFullEvents                   507                       # Number of times rename has blocked due to SQ full
system.cpu0.rename.RenamedOperands           10052868                       # Number of destination operands rename has renamed
system.cpu0.rename.RenameLookups             23538104                       # Number of register rename lookups that rename has made
system.cpu0.rename.int_rename_lookups        10983570                       # Number of integer rename lookups
system.cpu0.rename.fp_rename_lookups            35063                       # Number of floating rename lookups
system.cpu0.rename.CommittedMaps              3479574                       # Number of HB maps that are committed
system.cpu0.rename.UndoneMaps                 6573294                       # Number of HB maps that are undone due to squashing
system.cpu0.rename.serializingInsts               313                       # count of serializing insts renamed
system.cpu0.rename.tempSerializingInsts           370                       # count of temporary serializing insts renamed
system.cpu0.rename.skidInsts                  2207852                       # count of insts added to the skid buffer
system.cpu0.memDep0.insertedLoads             1536003                       # Number of loads inserted to the mem dependence unit.
system.cpu0.memDep0.insertedStores              77004                       # Number of stores inserted to the mem dependence unit.
system.cpu0.memDep0.conflictingLoads             4582                       # Number of conflicting loads.
system.cpu0.memDep0.conflictingStores            4575                       # Number of conflicting stores.
system.cpu0.iq.iqInstsAdded                   8016196                       # Number of instructions added to the IQ (excludes non-spec)
system.cpu0.iq.iqNonSpecInstsAdded               4682                       # Number of non-speculative instructions added to the IQ
system.cpu0.iq.iqInstsIssued                  5655884                       # Number of instructions issued
system.cpu0.iq.iqSquashedInstsIssued             5966                       # Number of squashed instructions issued
system.cpu0.iq.iqSquashedInstsExamined        5116507                       # Number of squashed instructions iterated over during squash; mainly for profiling
system.cpu0.iq.iqSquashedOperandsExamined     10917051                       # Number of squashed operands that are examined and possibly removed from graph
system.cpu0.iq.iqSquashedNonSpecRemoved          4682                       # Number of squashed non-spec instructions that were removed
system.cpu0.iq.issued_per_cycle::samples     30497396                       # Number of insts issued each cycle
system.cpu0.iq.issued_per_cycle::mean        0.185455                       # Number of insts issued each cycle
system.cpu0.iq.issued_per_cycle::stdev       0.782349                       # Number of insts issued each cycle
system.cpu0.iq.issued_per_cycle::underflows            0      0.00%      0.00% # Number of insts issued each cycle
system.cpu0.iq.issued_per_cycle::0           28183555     92.41%     92.41% # Number of insts issued each cycle
system.cpu0.iq.issued_per_cycle::1             911984      2.99%     95.40% # Number of insts issued each cycle
system.cpu0.iq.issued_per_cycle::2             485492      1.59%     97.00% # Number of insts issued each cycle
system.cpu0.iq.issued_per_cycle::3             324743      1.06%     98.06% # Number of insts issued each cycle
system.cpu0.iq.issued_per_cycle::4             360110      1.18%     99.24% # Number of insts issued each cycle
system.cpu0.iq.issued_per_cycle::5             100653      0.33%     99.57% # Number of insts issued each cycle
system.cpu0.iq.issued_per_cycle::6              82054      0.27%     99.84% # Number of insts issued each cycle
system.cpu0.iq.issued_per_cycle::7              27782      0.09%     99.93% # Number of insts issued each cycle
system.cpu0.iq.issued_per_cycle::8              21023      0.07%    100.00% # Number of insts issued each cycle
system.cpu0.iq.issued_per_cycle::overflows            0      0.00%    100.00% # Number of insts issued each cycle
system.cpu0.iq.issued_per_cycle::min_value            0                       # Number of insts issued each cycle
system.cpu0.iq.issued_per_cycle::max_value            8                       # Number of insts issued each cycle
system.cpu0.iq.issued_per_cycle::total       30497396                       # Number of insts issued each cycle
system.cpu0.iq.fu_full::No_OpClass                  0      0.00%      0.00% # attempts to use FU when none available
system.cpu0.iq.fu_full::IntAlu                  10594     68.37%     68.37% # attempts to use FU when none available
system.cpu0.iq.fu_full::IntMult                     0      0.00%     68.37% # attempts to use FU when none available
system.cpu0.iq.fu_full::IntDiv                      0      0.00%     68.37% # attempts to use FU when none available
system.cpu0.iq.fu_full::FloatAdd                 1047      6.76%     75.13% # attempts to use FU when none available
system.cpu0.iq.fu_full::FloatCmp                    0      0.00%     75.13% # attempts to use FU when none available
system.cpu0.iq.fu_full::FloatCvt                    0      0.00%     75.13% # attempts to use FU when none available
system.cpu0.iq.fu_full::FloatMult                   0      0.00%     75.13% # attempts to use FU when none available
system.cpu0.iq.fu_full::FloatMultAcc                0      0.00%     75.13% # attempts to use FU when none available
system.cpu0.iq.fu_full::FloatDiv                    0      0.00%     75.13% # attempts to use FU when none available
system.cpu0.iq.fu_full::FloatMisc                   0      0.00%     75.13% # attempts to use FU when none available
system.cpu0.iq.fu_full::FloatSqrt                   0      0.00%     75.13% # attempts to use FU when none available
system.cpu0.iq.fu_full::SimdAdd                     0      0.00%     75.13% # attempts to use FU when none available
system.cpu0.iq.fu_full::SimdAddAcc                  0      0.00%     75.13% # attempts to use FU when none available
system.cpu0.iq.fu_full::SimdAlu                     0      0.00%     75.13% # attempts to use FU when none available
system.cpu0.iq.fu_full::SimdCmp                     0      0.00%     75.13% # attempts to use FU when none available
system.cpu0.iq.fu_full::SimdCvt                     0      0.00%     75.13% # attempts to use FU when none available
system.cpu0.iq.fu_full::SimdMisc                    0      0.00%     75.13% # attempts to use FU when none available
system.cpu0.iq.fu_full::SimdMult                    0      0.00%     75.13% # attempts to use FU when none available
system.cpu0.iq.fu_full::SimdMultAcc                 0      0.00%     75.13% # attempts to use FU when none available
system.cpu0.iq.fu_full::SimdShift                   0      0.00%     75.13% # attempts to use FU when none available
system.cpu0.iq.fu_full::SimdShiftAcc                0      0.00%     75.13% # attempts to use FU when none available
system.cpu0.iq.fu_full::SimdSqrt                    0      0.00%     75.13% # attempts to use FU when none available
system.cpu0.iq.fu_full::SimdFloatAdd                0      0.00%     75.13% # attempts to use FU when none available
system.cpu0.iq.fu_full::SimdFloatAlu                0      0.00%     75.13% # attempts to use FU when none available
system.cpu0.iq.fu_full::SimdFloatCmp                0      0.00%     75.13% # attempts to use FU when none available
system.cpu0.iq.fu_full::SimdFloatCvt                0      0.00%     75.13% # attempts to use FU when none available
system.cpu0.iq.fu_full::SimdFloatDiv                0      0.00%     75.13% # attempts to use FU when none available
system.cpu0.iq.fu_full::SimdFloatMisc               0      0.00%     75.13% # attempts to use FU when none available
system.cpu0.iq.fu_full::SimdFloatMult               0      0.00%     75.13% # attempts to use FU when none available
system.cpu0.iq.fu_full::SimdFloatMultAcc            0      0.00%     75.13% # attempts to use FU when none available
system.cpu0.iq.fu_full::SimdFloatSqrt               0      0.00%     75.13% # attempts to use FU when none available
system.cpu0.iq.fu_full::MemRead                  3423     22.09%     97.22% # attempts to use FU when none available
system.cpu0.iq.fu_full::MemWrite                  286      1.85%     99.07% # attempts to use FU when none available
system.cpu0.iq.fu_full::FloatMemRead              134      0.86%     99.94% # attempts to use FU when none available
system.cpu0.iq.fu_full::FloatMemWrite              10      0.06%    100.00% # attempts to use FU when none available
system.cpu0.iq.fu_full::IprAccess                   0      0.00%    100.00% # attempts to use FU when none available
system.cpu0.iq.fu_full::InstPrefetch                0      0.00%    100.00% # attempts to use FU when none available
system.cpu0.iq.FU_type_0::No_OpClass            17687      0.31%      0.31% # Type of FU issued
system.cpu0.iq.FU_type_0::IntAlu              4673063     82.62%     82.94% # Type of FU issued
system.cpu0.iq.FU_type_0::IntMult                1228      0.02%     82.96% # Type of FU issued
system.cpu0.iq.FU_type_0::IntDiv                 9308      0.16%     83.12% # Type of FU issued
system.cpu0.iq.FU_type_0::FloatAdd              12841      0.23%     83.35% # Type of FU issued
system.cpu0.iq.FU_type_0::FloatCmp                  0      0.00%     83.35% # Type of FU issued
system.cpu0.iq.FU_type_0::FloatCvt                  0      0.00%     83.35% # Type of FU issued
system.cpu0.iq.FU_type_0::FloatMult                 0      0.00%     83.35% # Type of FU issued
system.cpu0.iq.FU_type_0::FloatMultAcc              0      0.00%     83.35% # Type of FU issued
system.cpu0.iq.FU_type_0::FloatDiv                  0      0.00%     83.35% # Type of FU issued
system.cpu0.iq.FU_type_0::FloatMisc                 0      0.00%     83.35% # Type of FU issued
system.cpu0.iq.FU_type_0::FloatSqrt                 0      0.00%     83.35% # Type of FU issued
system.cpu0.iq.FU_type_0::SimdAdd                   0      0.00%     83.35% # Type of FU issued
system.cpu0.iq.FU_type_0::SimdAddAcc                0      0.00%     83.35% # Type of FU issued
system.cpu0.iq.FU_type_0::SimdAlu                   0      0.00%     83.35% # Type of FU issued
system.cpu0.iq.FU_type_0::SimdCmp                   0      0.00%     83.35% # Type of FU issued
system.cpu0.iq.FU_type_0::SimdCvt                   0      0.00%     83.35% # Type of FU issued
system.cpu0.iq.FU_type_0::SimdMisc                  0      0.00%     83.35% # Type of FU issued
system.cpu0.iq.FU_type_0::SimdMult                  0      0.00%     83.35% # Type of FU issued
system.cpu0.iq.FU_type_0::SimdMultAcc               0      0.00%     83.35% # Type of FU issued
system.cpu0.iq.FU_type_0::SimdShift                 0      0.00%     83.35% # Type of FU issued
system.cpu0.iq.FU_type_0::SimdShiftAcc              0      0.00%     83.35% # Type of FU issued
system.cpu0.iq.FU_type_0::SimdSqrt                  0      0.00%     83.35% # Type of FU issued
system.cpu0.iq.FU_type_0::SimdFloatAdd              0      0.00%     83.35% # Type of FU issued
system.cpu0.iq.FU_type_0::SimdFloatAlu              0      0.00%     83.35% # Type of FU issued
system.cpu0.iq.FU_type_0::SimdFloatCmp              0      0.00%     83.35% # Type of FU issued
system.cpu0.iq.FU_type_0::SimdFloatCvt              0      0.00%     83.35% # Type of FU issued
system.cpu0.iq.FU_type_0::SimdFloatDiv              0      0.00%     83.35% # Type of FU issued
system.cpu0.iq.FU_type_0::SimdFloatMisc             0      0.00%     83.35% # Type of FU issued
system.cpu0.iq.FU_type_0::SimdFloatMult             0      0.00%     83.35% # Type of FU issued
system.cpu0.iq.FU_type_0::SimdFloatMultAcc            0      0.00%     83.35% # Type of FU issued
system.cpu0.iq.FU_type_0::SimdFloatSqrt             0      0.00%     83.35% # Type of FU issued
system.cpu0.iq.FU_type_0::MemRead              883077     15.61%     98.96% # Type of FU issued
system.cpu0.iq.FU_type_0::MemWrite              55987      0.99%     99.95% # Type of FU issued
system.cpu0.iq.FU_type_0::FloatMemRead           2663      0.05%    100.00% # Type of FU issued
system.cpu0.iq.FU_type_0::FloatMemWrite            30      0.00%    100.00% # Type of FU issued
system.cpu0.iq.FU_type_0::IprAccess                 0      0.00%    100.00% # Type of FU issued
system.cpu0.iq.FU_type_0::InstPrefetch              0      0.00%    100.00% # Type of FU issued
system.cpu0.iq.FU_type_0::total               5655884                       # Type of FU issued
system.cpu0.iq.rate                          0.185228                       # Inst issue rate
system.cpu0.iq.fu_busy_cnt                      15494                       # FU busy when requested
system.cpu0.iq.fu_busy_rate                  0.002739                       # FU busy rate (busy events/executed inst)
system.cpu0.iq.int_inst_queue_reads          41798175                       # Number of integer instruction queue reads
system.cpu0.iq.int_inst_queue_writes         13107344                       # Number of integer instruction queue writes
system.cpu0.iq.int_inst_queue_wakeup_accesses      5426800                       # Number of integer instruction queue wakeup accesses
system.cpu0.iq.fp_inst_queue_reads              32449                       # Number of floating instruction queue reads
system.cpu0.iq.fp_inst_queue_writes             30044                       # Number of floating instruction queue writes
system.cpu0.iq.fp_inst_queue_wakeup_accesses        13973                       # Number of floating instruction queue wakeup accesses
system.cpu0.iq.vec_inst_queue_reads                 0                       # Number of vector instruction queue reads
system.cpu0.iq.vec_inst_queue_writes                0                       # Number of vector instruction queue writes
system.cpu0.iq.vec_inst_queue_wakeup_accesses            0                       # Number of vector instruction queue wakeup accesses
system.cpu0.iq.int_alu_accesses               5636961                       # Number of integer alu accesses
system.cpu0.iq.fp_alu_accesses                  16730                       # Number of floating point alu accesses
system.cpu0.iq.vec_alu_accesses                     0                       # Number of vector alu accesses
system.cpu0.iew.lsq.thread0.forwLoads            3889                       # Number of loads that had data forwarded from stores
system.cpu0.iew.lsq.thread0.invAddrLoads            0                       # Number of loads ignored due to an invalid address
system.cpu0.iew.lsq.thread0.squashedLoads       982694                       # Number of loads squashed
system.cpu0.iew.lsq.thread0.ignoredResponses          138                       # Number of memory responses ignored because the instruction is squashed
system.cpu0.iew.lsq.thread0.memOrderViolation            3                       # Number of memory ordering violations
system.cpu0.iew.lsq.thread0.squashedStores        50238                       # Number of stores squashed
system.cpu0.iew.lsq.thread0.invAddrSwpfs            0                       # Number of software prefetches ignored due to an invalid address
system.cpu0.iew.lsq.thread0.blockedLoads            0                       # Number of blocked loads due to partial load-store forwarding
system.cpu0.iew.lsq.thread0.rescheduledLoads           18                       # Number of loads that were rescheduled
system.cpu0.iew.lsq.thread0.cacheBlocked         1893                       # Number of times an access to memory failed due to the cache being blocked
system.cpu0.iew.iewIdleCycles                       0                       # Number of cycles IEW is idle
system.cpu0.iew.iewSquashCycles                 76330                       # Number of cycles IEW is squashing
system.cpu0.iew.iewBlockCycles               24978200                       # Number of cycles IEW is blocking
system.cpu0.iew.iewUnblockCycles               283575                       # Number of cycles IEW is unblocking
system.cpu0.iew.iewDispatchedInsts            8020878                       # Number of instructions dispatched to IQ
system.cpu0.iew.iewDispSquashedInsts             4444                       # Number of squashed instructions skipped by dispatch
system.cpu0.iew.iewDispLoadInsts              1536003                       # Number of dispatched load instructions
system.cpu0.iew.iewDispStoreInsts               77004                       # Number of dispatched store instructions
system.cpu0.iew.iewDispNonSpecInsts              1750                       # Number of dispatched non-speculative instructions
system.cpu0.iew.iewIQFullEvents                 22012                       # Number of times the IQ has become full, causing a stall
system.cpu0.iew.iewLSQFullEvents                59447                       # Number of times the LSQ has become full, causing a stall
system.cpu0.iew.memOrderViolationEvents             3                       # Number of memory order violations
system.cpu0.iew.predictedTakenIncorrect         41061                       # Number of branches that were predicted taken incorrectly
system.cpu0.iew.predictedNotTakenIncorrect        42930                       # Number of branches that were predicted not taken incorrectly
system.cpu0.iew.branchMispredicts               83991                       # Number of branch mispredicts detected at execute
system.cpu0.iew.iewExecutedInsts              5556276                       # Number of executed instructions
system.cpu0.iew.iewExecLoadInsts               845265                       # Number of load instructions executed
system.cpu0.iew.iewExecSquashedInsts            99608                       # Number of squashed instructions skipped in execute
system.cpu0.iew.exec_swp                            0                       # number of swp insts executed
system.cpu0.iew.exec_nop                            0                       # number of nop insts executed
system.cpu0.iew.exec_refs                      897086                       # number of memory reference insts executed
system.cpu0.iew.exec_branches                  659345                       # Number of branches executed
system.cpu0.iew.exec_stores                     51821                       # Number of stores executed
system.cpu0.iew.exec_rate                    0.181966                       # Inst execution rate
system.cpu0.iew.wb_sent                       5457680                       # cumulative count of insts sent to commit
system.cpu0.iew.wb_count                      5440773                       # cumulative count of insts written-back
system.cpu0.iew.wb_producers                  4054830                       # num instructions producing a value
system.cpu0.iew.wb_consumers                  6329624                       # num instructions consuming a value
system.cpu0.iew.wb_rate                      0.178183                       # insts written-back per cycle
system.cpu0.iew.wb_fanout                    0.640612                       # average fanout of values written-back
system.cpu0.commit.commitSquashedInsts        5117136                       # The number of squashed insts skipped by commit
system.cpu0.commit.branchMispredicts            76327                       # The number of times a branch was mispredicted
system.cpu0.commit.committed_per_cycle::samples     29780464                       # Number of insts commited each cycle
system.cpu0.commit.committed_per_cycle::mean     0.097526                       # Number of insts commited each cycle
system.cpu0.commit.committed_per_cycle::stdev     0.577541                       # Number of insts commited each cycle
system.cpu0.commit.committed_per_cycle::underflows            0      0.00%      0.00% # Number of insts commited each cycle
system.cpu0.commit.committed_per_cycle::0     28527091     95.79%     95.79% # Number of insts commited each cycle
system.cpu0.commit.committed_per_cycle::1       579911      1.95%     97.74% # Number of insts commited each cycle
system.cpu0.commit.committed_per_cycle::2       133416      0.45%     98.19% # Number of insts commited each cycle
system.cpu0.commit.committed_per_cycle::3       369555      1.24%     99.43% # Number of insts commited each cycle
system.cpu0.commit.committed_per_cycle::4        70585      0.24%     99.66% # Number of insts commited each cycle
system.cpu0.commit.committed_per_cycle::5        38211      0.13%     99.79% # Number of insts commited each cycle
system.cpu0.commit.committed_per_cycle::6         6910      0.02%     99.82% # Number of insts commited each cycle
system.cpu0.commit.committed_per_cycle::7         4172      0.01%     99.83% # Number of insts commited each cycle
system.cpu0.commit.committed_per_cycle::8        50613      0.17%    100.00% # Number of insts commited each cycle
system.cpu0.commit.committed_per_cycle::overflows            0      0.00%    100.00% # Number of insts commited each cycle
system.cpu0.commit.committed_per_cycle::min_value            0                       # Number of insts commited each cycle
system.cpu0.commit.committed_per_cycle::max_value            8                       # Number of insts commited each cycle
system.cpu0.commit.committed_per_cycle::total     29780464                       # Number of insts commited each cycle
system.cpu0.commit.committedInsts             1452956                       # Number of instructions committed
system.cpu0.commit.committedOps               2904371                       # Number of ops (including micro ops) committed
system.cpu0.commit.swp_count                        0                       # Number of s/w prefetches committed
system.cpu0.commit.refs                        580075                       # Number of memory references committed
system.cpu0.commit.loads                       553309                       # Number of loads committed
system.cpu0.commit.membars                          0                       # Number of memory barriers committed
system.cpu0.commit.branches                    526619                       # Number of branches committed
system.cpu0.commit.vec_insts                        0                       # Number of committed Vector instructions.
system.cpu0.commit.fp_insts                     10692                       # Number of committed floating point instructions.
system.cpu0.commit.int_insts                  2893581                       # Number of committed integer instructions.
system.cpu0.commit.function_calls                4725                       # Number of function calls committed.
system.cpu0.commit.op_class_0::No_OpClass         3194      0.11%      0.11% # Class of committed instruction
system.cpu0.commit.op_class_0::IntAlu         2304096     79.33%     79.44% # Class of committed instruction
system.cpu0.commit.op_class_0::IntMult            189      0.01%     79.45% # Class of committed instruction
system.cpu0.commit.op_class_0::IntDiv            7673      0.26%     79.71% # Class of committed instruction
system.cpu0.commit.op_class_0::FloatAdd          9144      0.31%     80.03% # Class of committed instruction
system.cpu0.commit.op_class_0::FloatCmp             0      0.00%     80.03% # Class of committed instruction
system.cpu0.commit.op_class_0::FloatCvt             0      0.00%     80.03% # Class of committed instruction
system.cpu0.commit.op_class_0::FloatMult            0      0.00%     80.03% # Class of committed instruction
system.cpu0.commit.op_class_0::FloatMultAcc            0      0.00%     80.03% # Class of committed instruction
system.cpu0.commit.op_class_0::FloatDiv             0      0.00%     80.03% # Class of committed instruction
system.cpu0.commit.op_class_0::FloatMisc            0      0.00%     80.03% # Class of committed instruction
system.cpu0.commit.op_class_0::FloatSqrt            0      0.00%     80.03% # Class of committed instruction
system.cpu0.commit.op_class_0::SimdAdd              0      0.00%     80.03% # Class of committed instruction
system.cpu0.commit.op_class_0::SimdAddAcc            0      0.00%     80.03% # Class of committed instruction
system.cpu0.commit.op_class_0::SimdAlu              0      0.00%     80.03% # Class of committed instruction
system.cpu0.commit.op_class_0::SimdCmp              0      0.00%     80.03% # Class of committed instruction
system.cpu0.commit.op_class_0::SimdCvt              0      0.00%     80.03% # Class of committed instruction
system.cpu0.commit.op_class_0::SimdMisc             0      0.00%     80.03% # Class of committed instruction
system.cpu0.commit.op_class_0::SimdMult             0      0.00%     80.03% # Class of committed instruction
system.cpu0.commit.op_class_0::SimdMultAcc            0      0.00%     80.03% # Class of committed instruction
system.cpu0.commit.op_class_0::SimdShift            0      0.00%     80.03% # Class of committed instruction
system.cpu0.commit.op_class_0::SimdShiftAcc            0      0.00%     80.03% # Class of committed instruction
system.cpu0.commit.op_class_0::SimdSqrt             0      0.00%     80.03% # Class of committed instruction
system.cpu0.commit.op_class_0::SimdFloatAdd            0      0.00%     80.03% # Class of committed instruction
system.cpu0.commit.op_class_0::SimdFloatAlu            0      0.00%     80.03% # Class of committed instruction
system.cpu0.commit.op_class_0::SimdFloatCmp            0      0.00%     80.03% # Class of committed instruction
system.cpu0.commit.op_class_0::SimdFloatCvt            0      0.00%     80.03% # Class of committed instruction
system.cpu0.commit.op_class_0::SimdFloatDiv            0      0.00%     80.03% # Class of committed instruction
system.cpu0.commit.op_class_0::SimdFloatMisc            0      0.00%     80.03% # Class of committed instruction
system.cpu0.commit.op_class_0::SimdFloatMult            0      0.00%     80.03% # Class of committed instruction
system.cpu0.commit.op_class_0::SimdFloatMultAcc            0      0.00%     80.03% # Class of committed instruction
system.cpu0.commit.op_class_0::SimdFloatSqrt            0      0.00%     80.03% # Class of committed instruction
system.cpu0.commit.op_class_0::MemRead         551761     19.00%     99.03% # Class of committed instruction
system.cpu0.commit.op_class_0::MemWrite         26766      0.92%     99.95% # Class of committed instruction
system.cpu0.commit.op_class_0::FloatMemRead         1548      0.05%    100.00% # Class of committed instruction
system.cpu0.commit.op_class_0::FloatMemWrite            0      0.00%    100.00% # Class of committed instruction
system.cpu0.commit.op_class_0::IprAccess            0      0.00%    100.00% # Class of committed instruction
system.cpu0.commit.op_class_0::InstPrefetch            0      0.00%    100.00% # Class of committed instruction
system.cpu0.commit.op_class_0::total          2904371                       # Class of committed instruction
system.cpu0.commit.bw_lim_events                50613                       # number cycles where commit BW limit reached
system.cpu0.rob.rob_reads                    37751358                       # The number of ROB reads
system.cpu0.rob.rob_writes                   16761654                       # The number of ROB writes
system.cpu0.timesIdled                            337                       # Number of times that the entire CPU went into an idle state and unscheduled itself
system.cpu0.idleCycles                          37293                       # Total number of cycles that the CPU has spent unscheduled due to idling
system.cpu0.committedInsts                    1452956                       # Number of Instructions Simulated
system.cpu0.committedOps                      2904371                       # Number of Ops (including micro ops) Simulated
system.cpu0.cpi                             21.015563                       # CPI: Cycles Per Instruction
system.cpu0.cpi_total                       21.015563                       # CPI: Total CPI of All Threads
system.cpu0.ipc                              0.047584                       # IPC: Instructions Per Cycle
system.cpu0.ipc_total                        0.047584                       # IPC: Total IPC of All Threads
system.cpu0.int_regfile_reads                 5407437                       # number of integer regfile reads
system.cpu0.int_regfile_writes                4735845                       # number of integer regfile writes
system.cpu0.fp_regfile_reads                    24730                       # number of floating regfile reads
system.cpu0.fp_regfile_writes                   12335                       # number of floating regfile writes
system.cpu0.cc_regfile_reads                  3463032                       # number of cc regfile reads
system.cpu0.cc_regfile_writes                 1465614                       # number of cc regfile writes
system.cpu0.misc_regfile_reads                2950472                       # number of misc regfile reads
system.cpu0.dcache.tags.pwrStateResidencyTicks::UNDEFINED  15267344125                       # Cumulative time (in ticks) in various power states
system.cpu0.dcache.tags.replacements           288880                       # number of replacements
system.cpu0.dcache.tags.tagsinuse                1024                       # Cycle average of tags in use
system.cpu0.dcache.tags.total_refs             350076                       # Total number of references to valid blocks.
system.cpu0.dcache.tags.sampled_refs           288880                       # Sample count of references to valid blocks.
system.cpu0.dcache.tags.avg_refs             1.211839                       # Average number of references to valid blocks.
system.cpu0.dcache.tags.warmup_cycle                0                       # Cycle when the warmup percentage was hit.
system.cpu0.dcache.tags.occ_blocks::cpu0.data         1024                       # Average occupied blocks per requestor
system.cpu0.dcache.tags.occ_percent::cpu0.data            1                       # Average percentage of cache occupancy
system.cpu0.dcache.tags.occ_percent::total            1                       # Average percentage of cache occupancy
system.cpu0.dcache.tags.occ_task_id_blocks::1024         1024                       # Occupied blocks per task id
system.cpu0.dcache.tags.age_task_id_blocks_1024::0          141                       # Occupied blocks per task id
system.cpu0.dcache.tags.age_task_id_blocks_1024::1          878                       # Occupied blocks per task id
system.cpu0.dcache.tags.age_task_id_blocks_1024::2            5                       # Occupied blocks per task id
system.cpu0.dcache.tags.occ_task_id_percent::1024            1                       # Percentage of cache occupancy per task id
system.cpu0.dcache.tags.tag_accesses          3741452                       # Number of tag accesses
system.cpu0.dcache.tags.data_accesses         3741452                       # Number of data accesses
system.cpu0.dcache.pwrStateResidencyTicks::UNDEFINED  15267344125                       # Cumulative time (in ticks) in various power states
system.cpu0.dcache.ReadReq_hits::cpu0.data       326166                       # number of ReadReq hits
system.cpu0.dcache.ReadReq_hits::total         326166                       # number of ReadReq hits
system.cpu0.dcache.WriteReq_hits::cpu0.data        25715                       # number of WriteReq hits
system.cpu0.dcache.WriteReq_hits::total         25715                       # number of WriteReq hits
system.cpu0.dcache.demand_hits::cpu0.data       351881                       # number of demand (read+write) hits
system.cpu0.dcache.demand_hits::total          351881                       # number of demand (read+write) hits
system.cpu0.dcache.overall_hits::cpu0.data       351881                       # number of overall hits
system.cpu0.dcache.overall_hits::total         351881                       # number of overall hits
system.cpu0.dcache.ReadReq_misses::cpu0.data       510211                       # number of ReadReq misses
system.cpu0.dcache.ReadReq_misses::total       510211                       # number of ReadReq misses
system.cpu0.dcache.WriteReq_misses::cpu0.data         1051                       # number of WriteReq misses
system.cpu0.dcache.WriteReq_misses::total         1051                       # number of WriteReq misses
system.cpu0.dcache.demand_misses::cpu0.data       511262                       # number of demand (read+write) misses
system.cpu0.dcache.demand_misses::total        511262                       # number of demand (read+write) misses
system.cpu0.dcache.overall_misses::cpu0.data       511262                       # number of overall misses
system.cpu0.dcache.overall_misses::total       511262                       # number of overall misses
system.cpu0.dcache.ReadReq_miss_latency::cpu0.data  34839506000                       # number of ReadReq miss cycles
system.cpu0.dcache.ReadReq_miss_latency::total  34839506000                       # number of ReadReq miss cycles
system.cpu0.dcache.WriteReq_miss_latency::cpu0.data     36431000                       # number of WriteReq miss cycles
system.cpu0.dcache.WriteReq_miss_latency::total     36431000                       # number of WriteReq miss cycles
system.cpu0.dcache.demand_miss_latency::cpu0.data  34875937000                       # number of demand (read+write) miss cycles
system.cpu0.dcache.demand_miss_latency::total  34875937000                       # number of demand (read+write) miss cycles
system.cpu0.dcache.overall_miss_latency::cpu0.data  34875937000                       # number of overall miss cycles
system.cpu0.dcache.overall_miss_latency::total  34875937000                       # number of overall miss cycles
system.cpu0.dcache.ReadReq_accesses::cpu0.data       836377                       # number of ReadReq accesses(hits+misses)
system.cpu0.dcache.ReadReq_accesses::total       836377                       # number of ReadReq accesses(hits+misses)
system.cpu0.dcache.WriteReq_accesses::cpu0.data        26766                       # number of WriteReq accesses(hits+misses)
system.cpu0.dcache.WriteReq_accesses::total        26766                       # number of WriteReq accesses(hits+misses)
system.cpu0.dcache.demand_accesses::cpu0.data       863143                       # number of demand (read+write) accesses
system.cpu0.dcache.demand_accesses::total       863143                       # number of demand (read+write) accesses
system.cpu0.dcache.overall_accesses::cpu0.data       863143                       # number of overall (read+write) accesses
system.cpu0.dcache.overall_accesses::total       863143                       # number of overall (read+write) accesses
system.cpu0.dcache.ReadReq_miss_rate::cpu0.data     0.610025                       # miss rate for ReadReq accesses
system.cpu0.dcache.ReadReq_miss_rate::total     0.610025                       # miss rate for ReadReq accesses
system.cpu0.dcache.WriteReq_miss_rate::cpu0.data     0.039266                       # miss rate for WriteReq accesses
system.cpu0.dcache.WriteReq_miss_rate::total     0.039266                       # miss rate for WriteReq accesses
system.cpu0.dcache.demand_miss_rate::cpu0.data     0.592326                       # miss rate for demand accesses
system.cpu0.dcache.demand_miss_rate::total     0.592326                       # miss rate for demand accesses
system.cpu0.dcache.overall_miss_rate::cpu0.data     0.592326                       # miss rate for overall accesses
system.cpu0.dcache.overall_miss_rate::total     0.592326                       # miss rate for overall accesses
system.cpu0.dcache.ReadReq_avg_miss_latency::cpu0.data 68284.505822                       # average ReadReq miss latency
system.cpu0.dcache.ReadReq_avg_miss_latency::total 68284.505822                       # average ReadReq miss latency
system.cpu0.dcache.WriteReq_avg_miss_latency::cpu0.data 34663.177926                       # average WriteReq miss latency
system.cpu0.dcache.WriteReq_avg_miss_latency::total 34663.177926                       # average WriteReq miss latency
system.cpu0.dcache.demand_avg_miss_latency::cpu0.data 68215.390543                       # average overall miss latency
[...]
system.l2.ReadSharedReq_hits::cpu0.data        101240                       # number of ReadSharedReq hits
system.l2.ReadSharedReq_hits::total            101240                       # number of ReadSharedReq hits
system.l2.demand_hits::cpu0.data               102027                       # number of demand (read+write) hits
system.l2.demand_hits::total                   102027                       # number of demand (read+write) hits
system.l2.overall_hits::cpu0.data              102027                       # number of overall hits
system.l2.overall_hits::total                  102027                       # number of overall hits
system.l2.ReadExReq_misses::cpu0.data             260                       # number of ReadExReq misses
system.l2.ReadExReq_misses::total                 260                       # number of ReadExReq misses
system.l2.ReadSharedReq_misses::cpu0.data       186593                       # number of ReadSharedReq misses
system.l2.ReadSharedReq_misses::total          186593                       # number of ReadSharedReq misses
system.l2.demand_misses::cpu0.data             186853                       # number of demand (read+write) misses
system.l2.demand_misses::total                 186853                       # number of demand (read+write) misses
system.l2.overall_misses::cpu0.data            186853                       # number of overall misses
system.l2.overall_misses::total                186853                       # number of overall misses
system.l2.ReadExReq_miss_latency::cpu0.data     25052500                       # number of ReadExReq miss cycles
system.l2.ReadExReq_miss_latency::total      25052500                       # number of ReadExReq miss cycles
system.l2.ReadSharedReq_miss_latency::cpu0.data  17710049500                       # number of ReadSharedReq miss cycles
system.l2.ReadSharedReq_miss_latency::total  17710049500                       # number of ReadSharedReq miss cycles
system.l2.demand_miss_latency::cpu0.data  17735102000                       # number of demand (read+write) miss cycles
system.l2.demand_miss_latency::total      17735102000                       # number of demand (read+write) miss cycles
system.l2.overall_miss_latency::cpu0.data  17735102000                       # number of overall miss cycles
system.l2.overall_miss_latency::total     17735102000                       # number of overall miss cycles
system.l2.WritebackDirty_accesses::writebacks         2874                       # number of WritebackDirty accesses(hits+misses)
system.l2.WritebackDirty_accesses::total         2874                       # number of WritebackDirty accesses(hits+misses)
system.l2.ReadExReq_accesses::cpu0.data          1047                       # number of ReadExReq accesses(hits+misses)
system.l2.ReadExReq_accesses::total              1047                       # number of ReadExReq accesses(hits+misses)
system.l2.ReadSharedReq_accesses::cpu0.data       287833                       # number of ReadSharedReq accesses(hits+misses)
system.l2.ReadSharedReq_accesses::total        287833                       # number of ReadSharedReq accesses(hits+misses)
system.l2.demand_accesses::cpu0.data           288880                       # number of demand (read+write) accesses
system.l2.demand_accesses::total               288880                       # number of demand (read+write) accesses
system.l2.overall_accesses::cpu0.data          288880                       # number of overall (read+write) accesses
system.l2.overall_accesses::total              288880                       # number of overall (read+write) accesses
system.l2.ReadExReq_miss_rate::cpu0.data     0.248329                       # miss rate for ReadExReq accesses
system.l2.ReadExReq_miss_rate::total         0.248329                       # miss rate for ReadExReq accesses
system.l2.ReadSharedReq_miss_rate::cpu0.data     0.648268                       # miss rate for ReadSharedReq accesses
system.l2.ReadSharedReq_miss_rate::total     0.648268                       # miss rate for ReadSharedReq accesses
system.l2.demand_miss_rate::cpu0.data        0.646819                       # miss rate for demand accesses
system.l2.demand_miss_rate::total            0.646819                       # miss rate for demand accesses
system.l2.overall_miss_rate::cpu0.data       0.646819                       # miss rate for overall accesses
system.l2.overall_miss_rate::total           0.646819                       # miss rate for overall accesses
system.l2.ReadExReq_avg_miss_latency::cpu0.data 96355.769231                       # average ReadExReq miss latency
system.l2.ReadExReq_avg_miss_latency::total 96355.769231                       # average ReadExReq miss latency
system.l2.ReadSharedReq_avg_miss_latency::cpu0.data 94912.721806                       # average ReadSharedReq miss latency
system.l2.ReadSharedReq_avg_miss_latency::total 94912.721806                       # average ReadSharedReq miss latency
system.l2.demand_avg_miss_latency::cpu0.data 94914.729761                       # average overall miss latency
system.l2.demand_avg_miss_latency::total 94914.729761                       # average overall miss latency
system.l2.overall_avg_miss_latency::cpu0.data 94914.729761                       # average overall miss latency
system.l2.overall_avg_miss_latency::total 94914.729761                       # average overall miss latency
system.l2.blocked_cycles::no_mshrs                  0                       # number of cycles access was blocked
system.l2.blocked_cycles::no_targets                0                       # number of cycles access was blocked
system.l2.blocked::no_mshrs                         0                       # number of cycles access was blocked
system.l2.blocked::no_targets                       0                       # number of cycles access was blocked
system.l2.avg_blocked_cycles::no_mshrs            nan                       # average number of cycles each access was blocked
system.l2.avg_blocked_cycles::no_targets          nan                       # average number of cycles each access was blocked
system.l2.writebacks::writebacks                  361                       # number of writebacks
system.l2.writebacks::total                       361                       # number of writebacks
system.l2.ReadExReq_mshr_misses::cpu0.data          260                       # number of ReadExReq MSHR misses
system.l2.ReadExReq_mshr_misses::total            260                       # number of ReadExReq MSHR misses
system.l2.ReadSharedReq_mshr_misses::cpu0.data       186593                       # number of ReadSharedReq MSHR misses
system.l2.ReadSharedReq_mshr_misses::total       186593                       # number of ReadSharedReq MSHR misses
system.l2.demand_mshr_misses::cpu0.data        186853                       # number of demand (read+write) MSHR misses
system.l2.demand_mshr_misses::total            186853                       # number of demand (read+write) MSHR misses
system.l2.overall_mshr_misses::cpu0.data       186853                       # number of overall MSHR misses
system.l2.overall_mshr_misses::total           186853                       # number of overall MSHR misses
system.l2.ReadExReq_mshr_miss_latency::cpu0.data     22452500                       # number of ReadExReq MSHR miss cycles
system.l2.ReadExReq_mshr_miss_latency::total     22452500                       # number of ReadExReq MSHR miss cycles
system.l2.ReadSharedReq_mshr_miss_latency::cpu0.data  15844119500                       # number of ReadSharedReq MSHR miss cycles
system.l2.ReadSharedReq_mshr_miss_latency::total  15844119500                       # number of ReadSharedReq MSHR miss cycles
system.l2.demand_mshr_miss_latency::cpu0.data  15866572000                       # number of demand (read+write) MSHR miss cycles
system.l2.demand_mshr_miss_latency::total  15866572000                       # number of demand (read+write) MSHR miss cycles
system.l2.overall_mshr_miss_latency::cpu0.data  15866572000                       # number of overall MSHR miss cycles
system.l2.overall_mshr_miss_latency::total  15866572000                       # number of overall MSHR miss cycles
system.l2.ReadExReq_mshr_miss_rate::cpu0.data     0.248329                       # mshr miss rate for ReadExReq accesses
system.l2.ReadExReq_mshr_miss_rate::total     0.248329                       # mshr miss rate for ReadExReq accesses
system.l2.ReadSharedReq_mshr_miss_rate::cpu0.data     0.648268                       # mshr miss rate for ReadSharedReq accesses
system.l2.ReadSharedReq_mshr_miss_rate::total     0.648268                       # mshr miss rate for ReadSharedReq accesses
system.l2.demand_mshr_miss_rate::cpu0.data     0.646819                       # mshr miss rate for demand accesses
system.l2.demand_mshr_miss_rate::total       0.646819                       # mshr miss rate for demand accesses
system.l2.overall_mshr_miss_rate::cpu0.data     0.646819                       # mshr miss rate for overall accesses
system.l2.overall_mshr_miss_rate::total      0.646819                       # mshr miss rate for overall accesses
system.l2.ReadExReq_avg_mshr_miss_latency::cpu0.data 86355.769231                       # average ReadExReq mshr miss latency
system.l2.ReadExReq_avg_mshr_miss_latency::total 86355.769231                       # average ReadExReq mshr miss latency
system.l2.ReadSharedReq_avg_mshr_miss_latency::cpu0.data 84912.721806                       # average ReadSharedReq mshr miss latency
system.l2.ReadSharedReq_avg_mshr_miss_latency::total 84912.721806                       # average ReadSharedReq mshr miss latency
system.l2.demand_avg_mshr_miss_latency::cpu0.data 84914.729761                       # average overall mshr miss latency
system.l2.demand_avg_mshr_miss_latency::total 84914.729761                       # average overall mshr miss latency
system.l2.overall_avg_mshr_miss_latency::cpu0.data 84914.729761                       # average overall mshr miss latency
system.l2.overall_avg_mshr_miss_latency::total 84914.729761                       # average overall mshr miss latency
system.membus.snoop_filter.tot_requests        373705                       # Total number of requests made to the snoop filter.
system.membus.snoop_filter.hit_single_requests       186853                       # Number of requests hitting in the snoop filter with a single holder of the requested data.
system.membus.snoop_filter.hit_multi_requests            0                       # Number of requests hitting in the snoop filter with multiple (>1) holders of the requested data.
system.membus.snoop_filter.tot_snoops               0                       # Total number of snoops made to the snoop filter.
system.membus.snoop_filter.hit_single_snoops            0                       # Number of snoops hitting in the snoop filter with a single holder of the requested data.
system.membus.snoop_filter.hit_multi_snoops            0                       # Number of snoops hitting in the snoop filter with multiple (>1) holders of the requested data.
system.membus.pwrStateResidencyTicks::UNDEFINED  15267344125                       # Cumulative time (in ticks) in various power states
system.membus.trans_dist::ReadResp             186593                       # Transaction distribution
system.membus.trans_dist::WritebackDirty          361                       # Transaction distribution
system.membus.trans_dist::CleanEvict           186491                       # Transaction distribution
system.membus.trans_dist::ReadExReq               260                       # Transaction distribution
system.membus.trans_dist::ReadExResp              260                       # Transaction distribution
system.membus.trans_dist::ReadSharedReq        186593                       # Transaction distribution
system.membus.pkt_count_system.l2.mem_side::system.mem_ctrls.port       560558                       # Packet count per connected master and slave (bytes)
system.membus.pkt_count_system.l2.mem_side::total       560558                       # Packet count per connected master and slave (bytes)
system.membus.pkt_count::total                 560558                       # Packet count per connected master and slave (bytes)
system.membus.pkt_size_system.l2.mem_side::system.mem_ctrls.port     11981696                       # Cumulative packet size per connected master and slave (bytes)
system.membus.pkt_size_system.l2.mem_side::total     11981696                       # Cumulative packet size per connected master and slave (bytes)
system.membus.pkt_size::total                11981696                       # Cumulative packet size per connected master and slave (bytes)
system.membus.snoops                                0                       # Total snoops (count)
system.membus.snoopTraffic                          0                       # Total snoop traffic (bytes)
system.membus.snoop_fanout::samples            186853                       # Request fanout histogram
system.membus.snoop_fanout::mean                    0                       # Request fanout histogram
system.membus.snoop_fanout::stdev                   0                       # Request fanout histogram
system.membus.snoop_fanout::underflows              0      0.00%      0.00% # Request fanout histogram
system.membus.snoop_fanout::0                  186853    100.00%    100.00% # Request fanout histogram
system.membus.snoop_fanout::1                       0      0.00%    100.00% # Request fanout histogram
system.membus.snoop_fanout::overflows               0      0.00%    100.00% # Request fanout histogram
system.membus.snoop_fanout::min_value               0                       # Request fanout histogram
system.membus.snoop_fanout::max_value               0                       # Request fanout histogram
system.membus.snoop_fanout::total              186853                       # Request fanout histogram
system.membus.reqLayer8.occupancy           438473500                       # Layer occupancy (ticks)
system.membus.reqLayer8.utilization               2.9                       # Layer utilization (%)
system.membus.respLayer1.occupancy         1012171500                       # Layer occupancy (ticks)
system.membus.respLayer1.utilization              6.6                       # Layer utilization (%)
system.tol2bus.snoop_filter.tot_requests       577760                       # Total number of requests made to the snoop filter.
system.tol2bus.snoop_filter.hit_single_requests       288880                       # Number of requests hitting in the snoop filter with a single holder of the requested data.
system.tol2bus.snoop_filter.hit_multi_requests          382                       # Number of requests hitting in the snoop filter with multiple (>1) holders of the requested data.
system.tol2bus.snoop_filter.tot_snoops              1                       # Total number of snoops made to the snoop filter.
system.tol2bus.snoop_filter.hit_single_snoops            1                       # Number of snoops hitting in the snoop filter with a single holder of the requested data.
system.tol2bus.snoop_filter.hit_multi_snoops            0                       # Number of snoops hitting in the snoop filter with multiple (>1) holders of the requested data.
system.tol2bus.pwrStateResidencyTicks::UNDEFINED  15267344125                       # Cumulative time (in ticks) in various power states
system.tol2bus.trans_dist::ReadResp            287833                       # Transaction distribution
system.tol2bus.trans_dist::WritebackDirty         3235                       # Transaction distribution
system.tol2bus.trans_dist::CleanEvict          472498                       # Transaction distribution
system.tol2bus.trans_dist::ReadExReq             1047                       # Transaction distribution
system.tol2bus.trans_dist::ReadExResp            1047                       # Transaction distribution
system.tol2bus.trans_dist::ReadSharedReq       287833                       # Transaction distribution
system.tol2bus.pkt_count_system.cpu0.dcache.mem_side::system.l2.cpu_side       866640                       # Packet count per connected master and slave (bytes)
system.tol2bus.pkt_count::total                866640                       # Packet count per connected master and slave (bytes)
system.tol2bus.pkt_size_system.cpu0.dcache.mem_side::system.l2.cpu_side     18672256                       # Cumulative packet size per connected master and slave (bytes)
system.tol2bus.pkt_size::total               18672256                       # Cumulative packet size per connected master and slave (bytes)
system.tol2bus.snoops                          186853                       # Total snoops (count)
system.tol2bus.snoopTraffic                     23104                       # Total snoop traffic (bytes)
system.tol2bus.snoop_fanout::samples           475733                       # Request fanout histogram
system.tol2bus.snoop_fanout::mean            0.000805                       # Request fanout histogram
system.tol2bus.snoop_fanout::stdev           0.028362                       # Request fanout histogram
system.tol2bus.snoop_fanout::underflows             0      0.00%      0.00% # Request fanout histogram
system.tol2bus.snoop_fanout::0                 475350     99.92%     99.92% # Request fanout histogram
system.tol2bus.snoop_fanout::1                    383      0.08%    100.00% # Request fanout histogram
system.tol2bus.snoop_fanout::2                      0      0.00%    100.00% # Request fanout histogram
system.tol2bus.snoop_fanout::3                      0      0.00%    100.00% # Request fanout histogram
system.tol2bus.snoop_fanout::4                      0      0.00%    100.00% # Request fanout histogram
system.tol2bus.snoop_fanout::5                      0      0.00%    100.00% # Request fanout histogram
system.tol2bus.snoop_fanout::6                      0      0.00%    100.00% # Request fanout histogram
system.tol2bus.snoop_fanout::7                      0      0.00%    100.00% # Request fanout histogram
system.tol2bus.snoop_fanout::8                      0      0.00%    100.00% # Request fanout histogram
system.tol2bus.snoop_fanout::9                      0      0.00%    100.00% # Request fanout histogram
system.tol2bus.snoop_fanout::10                     0      0.00%    100.00% # Request fanout histogram
system.tol2bus.snoop_fanout::11                     0      0.00%    100.00% # Request fanout histogram
system.tol2bus.snoop_fanout::12                     0      0.00%    100.00% # Request fanout histogram
system.tol2bus.snoop_fanout::13                     0      0.00%    100.00% # Request fanout histogram
system.tol2bus.snoop_fanout::14                     0      0.00%    100.00% # Request fanout histogram
system.tol2bus.snoop_fanout::15                     0      0.00%    100.00% # Request fanout histogram
system.tol2bus.snoop_fanout::16                     0      0.00%    100.00% # Request fanout histogram
system.tol2bus.snoop_fanout::overflows              0      0.00%    100.00% # Request fanout histogram
system.tol2bus.snoop_fanout::min_value              0                       # Request fanout histogram
system.tol2bus.snoop_fanout::max_value              1                       # Request fanout histogram
system.tol2bus.snoop_fanout::total             475733                       # Request fanout histogram
system.tol2bus.reqLayer0.occupancy          291754000                       # Layer occupancy (ticks)
system.tol2bus.reqLayer0.utilization              1.9                       # Layer utilization (%)
system.tol2bus.respLayer1.occupancy         433320000                       # Layer occupancy (ticks)
system.tol2bus.respLayer1.utilization             2.8                       # Layer utilization (%)

---------- End Simulation Statistics   ----------
