
---------- Begin Simulation Statistics ----------
sim_seconds                                  0.015267                       # Number of seconds simulated
sim_ticks                                 15267344125                       # Number of ticks simulated
final_tick                               4793946055250                       # Number of ticks from beginning of simulation (restored from checkpoints and never reset)
sim_freq                                 1000000000000                       # Frequency of simulated ticks
host_inst_rate                              114384128                       # Simulator instruction rate (inst/s)
host_op_rate                                212582468                       # Simulator op (including micro ops) rate (op/s)
host_tick_rate                              301071293                       # Simulator tick rate (ticks/s)
host_mem_usage                                2332656                       # Number of bytes of host memory used
host_seconds                                    50.71                       # Real time elapsed on the host
sim_insts                                  5800424325                       # Number of instructions simulated
sim_ops                                   10780068557                       # Number of ops (including micro ops) simulated
system.voltage_domain.voltage                       1                       # Voltage in Volts
system.clk_domain.clock                          1000                       # Clock period in ticks
system.mem_ctrls.pwrStateResidencyTicks::UNDEFINED  15267344125                       # Cumulative time (in ticks) in various power states
system.mem_ctrls.bytes_read::cpu0.inst             64                       # Number of bytes read from this memory
system.mem_ctrls.bytes_read::cpu0.data       11413504                       # Number of bytes read from this memory
system.mem_ctrls.bytes_read::total           11413568                       # Number of bytes read from this memory
system.mem_ctrls.bytes_inst_read::cpu0.inst           64                       # Number of instructions bytes read from this memory
system.mem_ctrls.bytes_inst_read::total            64                       # Number of instructions bytes read from this memory
system.mem_ctrls.bytes_written::writebacks        29120                       # Number of bytes written to this memory
system.mem_ctrls.bytes_written::total           29120                       # Number of bytes written to this memory
system.mem_ctrls.num_reads::cpu0.inst               1                       # Number of read requests responded to by this memory
system.mem_ctrls.num_reads::cpu0.data          178336                       # Number of read requests responded to by this memory
system.mem_ctrls.num_reads::total              178337                       # Number of read requests responded to by this memory
system.mem_ctrls.num_writes::writebacks           455                       # Number of write requests responded to by this memory
system.mem_ctrls.num_writes::total                455                       # Number of write requests responded to by this memory
system.mem_ctrls.bw_read::cpu0.inst              4192                       # Total read bandwidth from this memory (bytes/s)
system.mem_ctrls.bw_read::cpu0.data         747576259                       # Total read bandwidth from this memory (bytes/s)
system.mem_ctrls.bw_read::total             747580451                       # Total read bandwidth from this memory (bytes/s)
system.mem_ctrls.bw_inst_read::cpu0.inst         4192                       # Instruction read bandwidth from this memory (bytes/s)
system.mem_ctrls.bw_inst_read::total             4192                       # Instruction read bandwidth from this memory (bytes/s)
system.mem_ctrls.bw_write::writebacks         1907339                       # Write bandwidth from this memory (bytes/s)
system.mem_ctrls.bw_write::total              1907339                       # Write bandwidth from this memory (bytes/s)
system.mem_ctrls.bw_total::writebacks         1907339                       # Total bandwidth to/from this memory (bytes/s)
system.mem_ctrls.bw_total::cpu0.inst             4192                       # Total bandwidth to/from this memory (bytes/s)
system.mem_ctrls.bw_total::cpu0.data        747576259                       # Total bandwidth to/from this memory (bytes/s)
system.mem_ctrls.bw_total::total            749487790                       # Total bandwidth to/from this memory (bytes/s)
system.mem_ctrls.readReqs                      178337                       # Number of read requests accepted
system.mem_ctrls.writeReqs                        455                       # Number of write requests accepted
system.mem_ctrls.readBursts                    178337                       # Number of DRAM read bursts, including those serviced by the write queue
system.mem_ctrls.writeBursts                      455                       # Number of DRAM write bursts, including those merged in the write queue
system.mem_ctrls.bytesReadDRAM               11410240                       # Total number of bytes read from DRAM
system.mem_ctrls.bytesReadWrQ                    3328                       # Total number of bytes read from write queue
system.mem_ctrls.bytesWritten                   29952                       # Total number of bytes written to DRAM
system.mem_ctrls.bytesReadSys                11413568                       # Total read bytes from the system interface side
system.mem_ctrls.bytesWrittenSys                29120                       # Total written bytes from the system interface side
system.mem_ctrls.servicedByWrQ                     52                       # Number of DRAM read bursts serviced by the write queue
system.mem_ctrls.mergedWrBursts                     1                       # Number of DRAM write bursts merged with an existing one
system.mem_ctrls.neitherReadNorWriteReqs            0                       # Number of requests that are neither read nor write
system.mem_ctrls.perBankRdBursts::0             11112                       # Per bank write bursts
system.mem_ctrls.perBankRdBursts::1             10997                       # Per bank write bursts
system.mem_ctrls.perBankRdBursts::2             11000                       # Per bank write bursts
system.mem_ctrls.perBankRdBursts::3             11077                       # Per bank write bursts
system.mem_ctrls.perBankRdBursts::4             10914                       # Per bank write bursts
system.mem_ctrls.perBankRdBursts::5             11241                       # Per bank write bursts
system.mem_ctrls.perBankRdBursts::6             11021                       # Per bank write bursts
system.mem_ctrls.perBankRdBursts::7             11309                       # Per bank write bursts
system.mem_ctrls.perBankRdBursts::8             11011                       # Per bank write bursts
system.mem_ctrls.perBankRdBursts::9             11076                       # Per bank write bursts
system.mem_ctrls.perBankRdBursts::10            10756                       # Per bank write bursts
system.mem_ctrls.perBankRdBursts::11            11066                       # Per bank write bursts
system.mem_ctrls.perBankRdBursts::12            11477                       # Per bank write bursts
system.mem_ctrls.perBankRdBursts::13            11623                       # Per bank write bursts
system.mem_ctrls.perBankRdBursts::14            11392                       # Per bank write bursts
system.mem_ctrls.perBankRdBursts::15            11213                       # Per bank write bursts
system.mem_ctrls.perBankWrBursts::0                29                       # Per bank write bursts
system.mem_ctrls.perBankWrBursts::1                 2                       # Per bank write bursts
system.mem_ctrls.perBankWrBursts::2                 0                       # Per bank write bursts
system.mem_ctrls.perBankWrBursts::3                 1                       # Per bank write bursts
system.mem_ctrls.perBankWrBursts::4                 4                       # Per bank write bursts
system.mem_ctrls.perBankWrBursts::5                86                       # Per bank write bursts
system.mem_ctrls.perBankWrBursts::6               125                       # Per bank write bursts
system.mem_ctrls.perBankWrBursts::7               118                       # Per bank write bursts
system.mem_ctrls.perBankWrBursts::8                 7                       # Per bank write bursts
system.mem_ctrls.perBankWrBursts::9                 0                       # Per bank write bursts
system.mem_ctrls.perBankWrBursts::10                0                       # Per bank write bursts
system.mem_ctrls.perBankWrBursts::11                0                       # Per bank write bursts
system.mem_ctrls.perBankWrBursts::12               96                       # Per bank write bursts
system.mem_ctrls.perBankWrBursts::13                0                       # Per bank write bursts
system.mem_ctrls.perBankWrBursts::14                0                       # Per bank write bursts
system.mem_ctrls.perBankWrBursts::15                0                       # Per bank write bursts
system.mem_ctrls.numRdRetry                         0                       # Number of times read queue was full causing retry
system.mem_ctrls.numWrRetry                         0                       # Number of times write queue was full causing retry
system.mem_ctrls.totGap                   15266740000                       # Total gap between requests
system.mem_ctrls.readPktSize::0                     0                       # Read request sizes (log2)
system.mem_ctrls.readPktSize::1                     0                       # Read request sizes (log2)
system.mem_ctrls.readPktSize::2                     0                       # Read request sizes (log2)
system.mem_ctrls.readPktSize::3                     0                       # Read request sizes (log2)
system.mem_ctrls.readPktSize::4                     0                       # Read request sizes (log2)
system.mem_ctrls.readPktSize::5                     0                       # Read request sizes (log2)
system.mem_ctrls.readPktSize::6                178337                       # Read request sizes (log2)
system.mem_ctrls.writePktSize::0                    0                       # Write request sizes (log2)
system.mem_ctrls.writePktSize::1                    0                       # Write request sizes (log2)
system.mem_ctrls.writePktSize::2                    0                       # Write request sizes (log2)
system.mem_ctrls.writePktSize::3                    0                       # Write request sizes (log2)
system.mem_ctrls.writePktSize::4                    0                       # Write request sizes (log2)
system.mem_ctrls.writePktSize::5                    0                       # Write request sizes (log2)
system.mem_ctrls.writePktSize::6                  455                       # Write request sizes (log2)
system.mem_ctrls.rdQLenPdf::0                  136667                       # What read queue length does an incoming req see
system.mem_ctrls.rdQLenPdf::1                   38781                       # What read queue length does an incoming req see
system.mem_ctrls.rdQLenPdf::2                    2763                       # What read queue length does an incoming req see
system.mem_ctrls.rdQLenPdf::3                      73                       # What read queue length does an incoming req see
system.mem_ctrls.rdQLenPdf::4                       1                       # What read queue length does an incoming req see
system.mem_ctrls.rdQLenPdf::5                       0                       # What read queue length does an incoming req see
system.mem_ctrls.rdQLenPdf::6                       0                       # What read queue length does an incoming req see
system.mem_ctrls.rdQLenPdf::7                       0                       # What read queue length does an incoming req see
system.mem_ctrls.rdQLenPdf::8                       0                       # What read queue length does an incoming req see
system.mem_ctrls.rdQLenPdf::9                       0                       # What read queue length does an incoming req see
system.mem_ctrls.rdQLenPdf::10                      0                       # What read queue length does an incoming req see
system.mem_ctrls.rdQLenPdf::11                      0                       # What read queue length does an incoming req see
system.mem_ctrls.rdQLenPdf::12                      0                       # What read queue length does an incoming req see
system.mem_ctrls.rdQLenPdf::13                      0                       # What read queue length does an incoming req see
system.mem_ctrls.rdQLenPdf::14                      0                       # What read queue length does an incoming req see
system.mem_ctrls.rdQLenPdf::15                      0                       # What read queue length does an incoming req see
system.mem_ctrls.rdQLenPdf::16                      0                       # What read queue length does an incoming req see
system.mem_ctrls.rdQLenPdf::17                      0                       # What read queue length does an incoming req see
system.mem_ctrls.rdQLenPdf::18                      0                       # What read queue length does an incoming req see
system.mem_ctrls.rdQLenPdf::19                      0                       # What read queue length does an incoming req see
system.mem_ctrls.rdQLenPdf::20                      0                       # What read queue length does an incoming req see
system.mem_ctrls.rdQLenPdf::21                      0                       # What read queue length does an incoming req see
system.mem_ctrls.rdQLenPdf::22                      0                       # What read queue length does an incoming req see
system.mem_ctrls.rdQLenPdf::23                      0                       # What read queue length does an incoming req see
system.mem_ctrls.rdQLenPdf::24                      0                       # What read queue length does an incoming req see
system.mem_ctrls.rdQLenPdf::25                      0                       # What read queue length does an incoming req see
system.mem_ctrls.rdQLenPdf::26                      0                       # What read queue length does an incoming req see
system.mem_ctrls.rdQLenPdf::27                      0                       # What read queue length does an incoming req see
system.mem_ctrls.rdQLenPdf::28                      0                       # What read queue length does an incoming req see
system.mem_ctrls.rdQLenPdf::29                      0                       # What read queue length does an incoming req see
system.mem_ctrls.rdQLenPdf::30                      0                       # What read queue length does an incoming req see
system.mem_ctrls.rdQLenPdf::31                      0                       # What read queue length does an incoming req see
system.mem_ctrls.wrQLenPdf::0                       0                       # What write queue length does an incoming req see
system.mem_ctrls.wrQLenPdf::1                       0                       # What write queue length does an incoming req see
system.mem_ctrls.wrQLenPdf::2                       0                       # What write queue length does an incoming req see
system.mem_ctrls.wrQLenPdf::3                       0                       # What write queue length does an incoming req see
system.mem_ctrls.wrQLenPdf::4                       0                       # What write queue length does an incoming req see
system.mem_ctrls.wrQLenPdf::5                       0                       # What write queue length does an incoming req see
system.mem_ctrls.wrQLenPdf::6                       0                       # What write queue length does an incoming req see
system.mem_ctrls.wrQLenPdf::7                       0                       # What write queue length does an incoming req see
system.mem_ctrls.wrQLenPdf::8                       0                       # What write queue length does an incoming req see
system.mem_ctrls.wrQLenPdf::9                       0                       # What write queue length does an incoming req see
system.mem_ctrls.wrQLenPdf::10                      0                       # What write queue length does an incoming req see
system.mem_ctrls.wrQLenPdf::11                      0                       # What write queue length does an incoming req see
system.mem_ctrls.wrQLenPdf::12                      0                       # What write queue length does an incoming req see
system.mem_ctrls.wrQLenPdf::13                      0                       # What write queue length does an incoming req see
system.mem_ctrls.wrQLenPdf::14                      0                       # What write queue length does an incoming req see
system.mem_ctrls.wrQLenPdf::15                      2                       # What write queue length does an incoming req see
system.mem_ctrls.wrQLenPdf::16                      2                       # What write queue length does an incoming req see
system.mem_ctrls.wrQLenPdf::17                     29                       # What write queue length does an incoming req see
system.mem_ctrls.wrQLenPdf::18                     28                       # What write queue length does an incoming req see
system.mem_ctrls.wrQLenPdf::19                     28                       # What write queue length does an incoming req see
system.mem_ctrls.wrQLenPdf::20                     28                       # What write queue length does an incoming req see
system.mem_ctrls.wrQLenPdf::21                     28                       # What write queue length does an incoming req see
system.mem_ctrls.wrQLenPdf::22                     28                       # What write queue length does an incoming req see
system.mem_ctrls.wrQLenPdf::23                     28                       # What write queue length does an incoming req see
system.mem_ctrls.wrQLenPdf::24                     28                       # What write queue length does an incoming req see
system.mem_ctrls.wrQLenPdf::25                     28                       # What write queue length does an incoming req see
system.mem_ctrls.wrQLenPdf::26                     28                       # What write queue length does an incoming req see
system.mem_ctrls.wrQLenPdf::27                     28                       # What write queue length does an incoming req see
system.mem_ctrls.wrQLenPdf::28                     28                       # What write queue length does an incoming req see
system.mem_ctrls.wrQLenPdf::29                     28                       # What write queue length does an incoming req see
system.mem_ctrls.wrQLenPdf::30                     28                       # What write queue length does an incoming req see
system.mem_ctrls.wrQLenPdf::31                     28                       # What write queue length does an incoming req see
system.mem_ctrls.wrQLenPdf::32                     29                       # What write queue length does an incoming req see
system.mem_ctrls.wrQLenPdf::33                      0                       # What write queue length does an incoming req see
system.mem_ctrls.wrQLenPdf::34                      0                       # What write queue length does an incoming req see
system.mem_ctrls.wrQLenPdf::35                      0                       # What write queue length does an incoming req see
system.mem_ctrls.wrQLenPdf::36                      0                       # What write queue length does an incoming req see
system.mem_ctrls.wrQLenPdf::37                      0                       # What write queue length does an incoming req see
system.mem_ctrls.wrQLenPdf::38                      0                       # What write queue length does an incoming req see
system.mem_ctrls.wrQLenPdf::39                      0                       # What write queue length does an incoming req see
system.mem_ctrls.wrQLenPdf::40                      0                       # What write queue length does an incoming req see
system.mem_ctrls.wrQLenPdf::41                      0                       # What write queue length does an incoming req see
system.mem_ctrls.wrQLenPdf::42                      0                       # What write queue length does an incoming req see
system.mem_ctrls.wrQLenPdf::43                      0                       # What write queue length does an incoming req see
system.mem_ctrls.wrQLenPdf::44                      0                       # What write queue length does an incoming req see
system.mem_ctrls.wrQLenPdf::45                      0                       # What write queue length does an incoming req see
system.mem_ctrls.wrQLenPdf::46                      0                       # What write queue length does an incoming req see
system.mem_ctrls.wrQLenPdf::47                      0                       # What write queue length does an incoming req see
system.mem_ctrls.wrQLenPdf::48                      0                       # What write queue length does an incoming req see
system.mem_ctrls.wrQLenPdf::49                      0                       # What write queue length does an incoming req see
system.mem_ctrls.wrQLenPdf::50                      0                       # What write queue length does an incoming req see
system.mem_ctrls.wrQLenPdf::51                      0                       # What write queue length does an incoming req see
system.mem_ctrls.wrQLenPdf::52                      0                       # What write queue length does an incoming req see
system.mem_ctrls.wrQLenPdf::53                      0                       # What write queue length does an incoming req see
system.mem_ctrls.wrQLenPdf::54                      0                       # What write queue length does an incoming req see
system.mem_ctrls.wrQLenPdf::55                      0                       # What write queue length does an incoming req see
system.mem_ctrls.wrQLenPdf::56                      0                       # What write queue length does an incoming req see
system.mem_ctrls.wrQLenPdf::57                      0                       # What write queue length does an incoming req see
system.mem_ctrls.wrQLenPdf::58                      0                       # What write queue length does an incoming req see
system.mem_ctrls.wrQLenPdf::59                      0                       # What write queue length does an incoming req see
system.mem_ctrls.wrQLenPdf::60                      0                       # What write queue length does an incoming req see
system.mem_ctrls.wrQLenPdf::61                      0                       # What write queue length does an incoming req see
system.mem_ctrls.wrQLenPdf::62                      0                       # What write queue length does an incoming req see
system.mem_ctrls.wrQLenPdf::63                      0                       # What write queue length does an incoming req see
system.mem_ctrls.bytesPerActivate::samples        95555                       # Bytes accessed per row activation
system.mem_ctrls.bytesPerActivate::mean    119.724305                       # Bytes accessed per row activation
system.mem_ctrls.bytesPerActivate::gmean   103.481016                       # Bytes accessed per row activation
system.mem_ctrls.bytesPerActivate::stdev    71.684585                       # Bytes accessed per row activation
system.mem_ctrls.bytesPerActivate::0-127        46524     48.69%     48.69% # Bytes accessed per row activation
system.mem_ctrls.bytesPerActivate::128-255        40485     42.37%     91.06% # Bytes accessed per row activation
system.mem_ctrls.bytesPerActivate::256-383         7570      7.92%     98.98% # Bytes accessed per row activation
system.mem_ctrls.bytesPerActivate::384-511          869      0.91%     99.89% # Bytes accessed per row activation
system.mem_ctrls.bytesPerActivate::512-639           77      0.08%     99.97% # Bytes accessed per row activation
system.mem_ctrls.bytesPerActivate::640-767           17      0.02%     99.99% # Bytes accessed per row activation
system.mem_ctrls.bytesPerActivate::768-895            5      0.01%     99.99% # Bytes accessed per row activation
system.mem_ctrls.bytesPerActivate::896-1023            2      0.00%     99.99% # Bytes accessed per row activation
system.mem_ctrls.bytesPerActivate::1024-1151            6      0.01%    100.00% # Bytes accessed per row activation
system.mem_ctrls.bytesPerActivate::total        95555                       # Bytes accessed per row activation
system.mem_ctrls.rdPerTurnAround::samples           29                       # Reads before turning the bus around for writes
system.mem_ctrls.rdPerTurnAround::mean    6280.896552                       # Reads before turning the bus around for writes
system.mem_ctrls.rdPerTurnAround::gmean   6017.038676                       # Reads before turning the bus around for writes
system.mem_ctrls.rdPerTurnAround::stdev   1828.080753                       # Reads before turning the bus around for writes
system.mem_ctrls.rdPerTurnAround::2560-3071            1      3.45%      3.45% # Reads before turning the bus around for writes
system.mem_ctrls.rdPerTurnAround::3584-4095            2      6.90%     10.34% # Reads before turning the bus around for writes
system.mem_ctrls.rdPerTurnAround::4096-4607            2      6.90%     17.24% # Reads before turning the bus around for writes
system.mem_ctrls.rdPerTurnAround::4608-5119            2      6.90%     24.14% # Reads before turning the bus around for writes
system.mem_ctrls.rdPerTurnAround::5120-5631            6     20.69%     44.83% # Reads before turning the bus around for writes
system.mem_ctrls.rdPerTurnAround::5632-6143            4     13.79%     58.62% # Reads before turning the bus around for writes
system.mem_ctrls.rdPerTurnAround::6656-7167            2      6.90%     65.52% # Reads before turning the bus around for writes
system.mem_ctrls.rdPerTurnAround::7168-7679            2      6.90%     72.41% # Reads before turning the bus around for writes
system.mem_ctrls.rdPerTurnAround::7680-8191            4     13.79%     86.21% # Reads before turning the bus around for writes
system.mem_ctrls.rdPerTurnAround::8192-8703            2      6.90%     93.10% # Reads before turning the bus around for writes
system.mem_ctrls.rdPerTurnAround::9216-9727            1      3.45%     96.55% # Reads before turning the bus around for writes
system.mem_ctrls.rdPerTurnAround::10240-10751            1      3.45%    100.00% # Reads before turning the bus around for writes
system.mem_ctrls.rdPerTurnAround::total            29                       # Reads before turning the bus around for writes
system.mem_ctrls.wrPerTurnAround::samples           29                       # Writes before turning the bus around for reads
system.mem_ctrls.wrPerTurnAround::mean      16.137931                       # Writes before turning the bus around for reads
system.mem_ctrls.wrPerTurnAround::gmean     16.130497                       # Writes before turning the bus around for reads
system.mem_ctrls.wrPerTurnAround::stdev      0.515761                       # Writes before turning the bus around for reads
system.mem_ctrls.wrPerTurnAround::16               27     93.10%     93.10% # Writes before turning the bus around for reads
system.mem_ctrls.wrPerTurnAround::18                2      6.90%    100.00% # Writes before turning the bus around for reads
system.mem_ctrls.wrPerTurnAround::total            29                       # Writes before turning the bus around for reads
system.mem_ctrls.totQLat                   4497313750                       # Total ticks spent queuing
system.mem_ctrls.totMemAccLat              7840157500                       # Total ticks spent from burst creation until serviced by the DRAM
system.mem_ctrls.totBusLat                  891425000                       # Total ticks spent in databus transfers
system.mem_ctrls.avgQLat                     25225.42                       # Average queueing delay per DRAM burst
system.mem_ctrls.avgBusLat                    5000.00                       # Average bus latency per DRAM burst
system.mem_ctrls.avgMemAccLat                43975.42                       # Average memory access latency per DRAM burst
system.mem_ctrls.avgRdBW                       747.36                       # Average DRAM read bandwidth in MiByte/s
system.mem_ctrls.avgWrBW                         1.96                       # Average achieved write bandwidth in MiByte/s
system.mem_ctrls.avgRdBWSys                    747.58                       # Average system read bandwidth in MiByte/s
system.mem_ctrls.avgWrBWSys                      1.91                       # Average system write bandwidth in MiByte/s
system.mem_ctrls.peakBW                      12800.00                       # Theoretical peak bandwidth in MiByte/s
system.mem_ctrls.busUtil                         5.85                       # Data bus utilization in percentage
system.mem_ctrls.busUtilRead                     5.84                       # Data bus utilization in percentage for reads
system.mem_ctrls.busUtilWrite                    0.02                       # Data bus utilization in percentage for writes
system.mem_ctrls.avgRdQLen                       1.29                       # Average read queue length when enqueuing
system.mem_ctrls.avgWrQLen                      25.24                       # Average write queue length when enqueuing
system.mem_ctrls.readRowHits                    82813                       # Number of row buffer hits during reads
system.mem_ctrls.writeRowHits                     385                       # Number of row buffer hits during writes
system.mem_ctrls.readRowHitRate                 46.45                       # Row buffer hit rate for reads
system.mem_ctrls.writeRowHitRate                84.80                       # Row buffer hit rate for writes
system.mem_ctrls.avgGap                      85388.27                       # Average gap between requests
system.mem_ctrls.pageHitRate                    46.55                       # Row buffer hit rate, read and write combined
system.mem_ctrls_0.actEnergy                339742620                       # Energy for activate commands per rank (pJ)
system.mem_ctrls_0.preEnergy                180577485                       # Energy for precharge commands per rank (pJ)
system.mem_ctrls_0.readEnergy               633110940                       # Energy for read commands per rank (pJ)
system.mem_ctrls_0.writeEnergy                1905300                       # Energy for write commands per rank (pJ)
system.mem_ctrls_0.refreshEnergy         1204694400.000000                       # Energy for refresh commands per rank (pJ)
system.mem_ctrls_0.actBackEnergy           1540032840                       # Energy for active background per rank (pJ)
system.mem_ctrls_0.preBackEnergy             24369120                       # Energy for precharge background per rank (pJ)
system.mem_ctrls_0.actPowerDownEnergy      5222742990                       # Energy for active power-down per rank (pJ)
system.mem_ctrls_0.prePowerDownEnergy       140410560                       # Energy for precharge power-down per rank (pJ)
system.mem_ctrls_0.selfRefreshEnergy          2372040                       # Energy for self refresh per rank (pJ)
system.mem_ctrls_0.totalEnergy             9289958295                       # Total energy per rank (pJ)
system.mem_ctrls_0.averagePower            608.485551                       # Core power per rank (mW)
system.mem_ctrls_0.totalIdleTime          11825388375                       # Total Idle time Per DRAM Rank
system.mem_ctrls_0.memoryStateTime::IDLE     10140000                       # Time in different power states
system.mem_ctrls_0.memoryStateTime::REF     509606000                       # Time in different power states
system.mem_ctrls_0.memoryStateTime::SREF      7582750                       # Time in different power states
system.mem_ctrls_0.memoryStateTime::PRE_PDN    366026750                       # Time in different power states
system.mem_ctrls_0.memoryStateTime::ACT    2921355000                       # Time in different power states
system.mem_ctrls_0.memoryStateTime::ACT_PDN  11452633625                       # Time in different power states
system.mem_ctrls_1.actEnergy                342520080                       # Energy for activate commands per rank (pJ)
system.mem_ctrls_1.preEnergy                182053740                       # Energy for precharge commands per rank (pJ)
system.mem_ctrls_1.readEnergy               639843960                       # Energy for read commands per rank (pJ)
system.mem_ctrls_1.writeEnergy                 537660                       # Energy for write commands per rank (pJ)
system.mem_ctrls_1.refreshEnergy         1205309040.000000                       # Energy for refresh commands per rank (pJ)
system.mem_ctrls_1.actBackEnergy           1558045410                       # Energy for active background per rank (pJ)
system.mem_ctrls_1.preBackEnergy             24712800                       # Energy for precharge background per rank (pJ)
system.mem_ctrls_1.actPowerDownEnergy      5235082350                       # Energy for active power-down per rank (pJ)
system.mem_ctrls_1.prePowerDownEnergy       116955360                       # Energy for precharge power-down per rank (pJ)
system.mem_ctrls_1.selfRefreshEnergy     842040.000000                       # Energy for self refresh per rank (pJ)
system.mem_ctrls_1.totalEnergy             9305902440                       # Total energy per rank (pJ)
system.mem_ctrls_1.averagePower            609.529880                       # Core power per rank (mW)
system.mem_ctrls_1.totalIdleTime          11786440375                       # Total Idle time Per DRAM Rank
system.mem_ctrls_1.memoryStateTime::IDLE      9846000                       # Time in different power states
system.mem_ctrls_1.memoryStateTime::REF     509866000                       # Time in different power states
system.mem_ctrls_1.memoryStateTime::SREF      1207500                       # Time in different power states
system.mem_ctrls_1.memoryStateTime::PRE_PDN    304663500                       # Time in different power states
system.mem_ctrls_1.memoryStateTime::ACT    2960567750                       # Time in different power states
system.mem_ctrls_1.memoryStateTime::ACT_PDN  11481193375                       # Time in different power states
system.pwrStateResidencyTicks::UNDEFINED  15267344125                       # Cumulative time (in ticks) in various power states
system.cpu0.branchPred.lookups                1967053                       # Number of BP lookups
system.cpu0.branchPred.condPredicted          1967053                       # Number of conditional branches predicted
system.cpu0.branchPred.condIncorrect            84486                       # Number of conditional branches incorrect
system.cpu0.branchPred.BTBLookups             1534699                       # Number of BTB lookups
system.cpu0.branchPred.BTBHits                      0                       # Number of BTB hits
system.cpu0.branchPred.BTBCorrect                   0                       # Number of correct BTB predictions (this stat may not work properly.
system.cpu0.branchPred.BTBHitPct             0.000000                       # BTB Hit Percentage
system.cpu0.branchPred.usedRAS                  58109                       # Number of times the RAS was used to get a target.
system.cpu0.branchPred.RASInCorrect              8830                       # Number of incorrect RAS predictions.
system.cpu0.branchPred.indirectLookups        1534699                       # Number of indirect predictor lookups.
system.cpu0.branchPred.indirectHits            838388                       # Number of indirect target hits.
system.cpu0.branchPred.indirectMisses          696311                       # Number of indirect misses.
system.cpu0.branchPredindirectMispredicted        27928                       # Number of mispredicted indirect branches.
system.cpu_voltage_domain.voltage                   1                       # Voltage in Volts
system.cpu_clk_domain.clock                       500                       # Clock period in ticks
system.cpu0.dtb.walker.pwrStateResidencyTicks::UNDEFINED  15267344125                       # Cumulative time (in ticks) in various power states
system.cpu0.dtb.rdAccesses                     954189                       # TLB accesses on read requests
system.cpu0.dtb.wrAccesses                      69613                       # TLB accesses on write requests
system.cpu0.dtb.rdMisses                       194254                       # TLB misses on read requests
system.cpu0.dtb.wrMisses                         1097                       # TLB misses on write requests
system.cpu0.apic_clk_domain.clock                8000                       # Clock period in ticks
system.cpu0.interrupts.pwrStateResidencyTicks::UNDEFINED  15267344125                       # Cumulative time (in ticks) in various power states
system.cpu0.itb.walker.pwrStateResidencyTicks::UNDEFINED  15267344125                       # Cumulative time (in ticks) in various power states
system.cpu0.itb.rdAccesses                          0                       # TLB accesses on read requests
system.cpu0.itb.wrAccesses                    1632966                       # TLB accesses on write requests
system.cpu0.itb.rdMisses                            0                       # TLB misses on read requests
system.cpu0.itb.wrMisses                         7194                       # TLB misses on write requests
system.cpu0.workload.numSyscalls                    1                       # Number of system calls
system.cpu0.pwrStateResidencyTicks::ON    15267344125                       # Cumulative time (in ticks) in various power states
system.cpu0.numCycles                        30534688                       # number of cpu cycles simulated
system.cpu0.numWorkItemsStarted                     0                       # number of work items this cpu started
system.cpu0.numWorkItemsCompleted                   0                       # number of work items this cpu completed
system.cpu0.fetch.icacheStallCycles           1669868                       # Number of cycles fetch is stalled on an Icache miss
system.cpu0.fetch.Insts                       5764593                       # Number of instructions fetch has processed
system.cpu0.fetch.Branches                    1967053                       # Number of branches that fetch encountered
system.cpu0.fetch.predictedBranches            896497                       # Number of branches that fetch has predicted taken
system.cpu0.fetch.Cycles                     28641510                       # Number of cycles fetch has run and was not squashing or blocked
system.cpu0.fetch.SquashCycles                 173612                       # Number of cycles fetch has spent squashing
system.cpu0.fetch.TlbCycles                      2018                       # Number of cycles fetch has spent waiting for tlb
system.cpu0.fetch.MiscStallCycles                1728                       # Number of cycles fetch has spent waiting on interrupts, or bad addresses, or out of MSHRs
system.cpu0.fetch.PendingTrapStallCycles        62427                       # Number of stall cycles due to pending traps
system.cpu0.fetch.CacheLines                  1625772                       # Number of cache lines fetched
system.cpu0.fetch.IcacheSquashes                10931                       # Number of outstanding Icache misses that were squashed
system.cpu0.fetch.ItlbSquashes                      7                       # Number of outstanding ITLB misses that were squashed
system.cpu0.fetch.rateDist::samples          30464357                       # Number of instructions fetched each cycle (Total)
system.cpu0.fetch.rateDist::mean             0.380726                       # Number of instructions fetched each cycle (Total)
system.cpu0.fetch.rateDist::stdev            1.546675                       # Number of instructions fetched each cycle (Total)
system.cpu0.fetch.rateDist::underflows              0      0.00%      0.00% # Number of instructions fetched each cycle (Total)
system.cpu0.fetch.rateDist::0                28228282     92.66%     92.66% # Number of instructions fetched each cycle (Total)
system.cpu0.fetch.rateDist::1                   31309      0.10%     92.76% # Number of instructions fetched each cycle (Total)
system.cpu0.fetch.rateDist::2                  799058      2.62%     95.39% # Number of instructions fetched each cycle (Total)
system.cpu0.fetch.rateDist::3                   34457      0.11%     95.50% # Number of instructions fetched each cycle (Total)
system.cpu0.fetch.rateDist::4                  154939      0.51%     96.01% # Number of instructions fetched each cycle (Total)
system.cpu0.fetch.rateDist::5                   81729      0.27%     96.28% # Number of instructions fetched each cycle (Total)
system.cpu0.fetch.rateDist::6                  104406      0.34%     96.62% # Number of instructions fetched each cycle (Total)
system.cpu0.fetch.rateDist::7                   30470      0.10%     96.72% # Number of instructions fetched each cycle (Total)
system.cpu0.fetch.rateDist::8                  999707      3.28%    100.00% # Number of instructions fetched each cycle (Total)
system.cpu0.fetch.rateDist::overflows               0      0.00%    100.00% # Number of instructions fetched each cycle (Total)
system.cpu0.fetch.rateDist::min_value               0                       # Number of instructions fetched each cycle (Total)
system.cpu0.fetch.rateDist::max_value               8                       # Number of instructions fetched each cycle (Total)
system.cpu0.fetch.rateDist::total            30464357                       # Number of instructions fetched each cycle (Total)
system.cpu0.fetch.branchRate                 0.064420                       # Number of branch fetches per cycle
system.cpu0.fetch.rate                       0.188788                       # Number of inst fetches per cycle
system.cpu0.decode.IdleCycles                  847241                       # Number of cycles decode is idle
system.cpu0.decode.BlockedCycles             28049841                       # Number of cycles decode is blocked
system.cpu0.decode.RunCycles                  1098979                       # Number of cycles decode is running
system.cpu0.decode.UnblockCycles               381490                       # Number of cycles decode is unblocking
system.cpu0.decode.SquashCycles                 86806                       # Number of cycles decode is squashing
system.cpu0.decode.DecodedInsts               9614742                       # Number of instructions handled by decode
system.cpu0.rename.SquashCycles                 86806                       # Number of cycles rename is squashing
system.cpu0.rename.IdleCycles                  970846                       # Number of cycles rename is idle
system.cpu0.rename.BlockCycles               26552982                       # Number of cycles rename is blocking
system.cpu0.rename.serializeStallCycles         17087                       # count of cycles rename stalled for serializing inst
system.cpu0.rename.RunCycles                  1267880                       # Number of cycles rename is running
system.cpu0.rename.UnblockCycles              1568756                       # Number of cycles rename is unblocking
system.cpu0.rename.RenamedInsts               9225084                       # Number of instructions processed by rename
system.cpu0.rename.ROBFullEvents                88392                       # Number of times rename has blocked due to ROB full
system.cpu0.rename.IQFullEvents               1238408                       # Number of times rename has blocked due to IQ full
system.cpu0.rename.LQFullEvents                267791                       # Number of times rename has blocked due to LQ full
system.cpu0.rename.SQFullEvents                   841                       # Number of times rename has blocked due to SQ full
system.cpu0.rename.RenamedOperands           10983365                       # Number of destination operands rename has renamed
system.cpu0.rename.RenameLookups             25594538                       # Number of register rename lookups that rename has made
system.cpu0.rename.int_rename_lookups        12125978                       # Number of integer rename lookups
system.cpu0.rename.fp_rename_lookups            47509                       # Number of floating rename lookups
system.cpu0.rename.CommittedMaps              3931929                       # Number of HB maps that are committed
system.cpu0.rename.UndoneMaps                 7051433                       # Number of HB maps that are undone due to squashing
system.cpu0.rename.serializingInsts               346                       # count of serializing insts renamed
system.cpu0.rename.tempSerializingInsts           418                       # count of temporary serializing insts renamed
system.cpu0.rename.skidInsts                  2401450                       # count of insts added to the skid buffer
system.cpu0.memDep0.insertedLoads             1653939                       # Number of loads inserted to the mem dependence unit.
system.cpu0.memDep0.insertedStores             101359                       # Number of stores inserted to the mem dependence unit.
system.cpu0.memDep0.conflictingLoads             5821                       # Number of conflicting loads.
system.cpu0.memDep0.conflictingStores            5612                       # Number of conflicting stores.
system.cpu0.iq.iqInstsAdded                   8746258                       # Number of instructions added to the IQ (excludes non-spec)
system.cpu0.iq.iqNonSpecInstsAdded               5254                       # Number of non-speculative instructions added to the IQ
system.cpu0.iq.iqInstsIssued                  6313653                       # Number of instructions issued
system.cpu0.iq.iqSquashedInstsIssued             8042                       # Number of squashed instructions issued
system.cpu0.iq.iqSquashedInstsExamined        5472420                       # Number of squashed instructions iterated over during squash; mainly for profiling
system.cpu0.iq.iqSquashedOperandsExamined     11232414                       # Number of squashed operands that are examined and possibly removed from graph
system.cpu0.iq.iqSquashedNonSpecRemoved          5253                       # Number of squashed non-spec instructions that were removed
system.cpu0.iq.issued_per_cycle::samples     30464357                       # Number of insts issued each cycle
system.cpu0.iq.issued_per_cycle::mean        0.207247                       # Number of insts issued each cycle
system.cpu0.iq.issued_per_cycle::stdev       0.830484                       # Number of insts issued each cycle
system.cpu0.iq.issued_per_cycle::underflows            0      0.00%      0.00% # Number of insts issued each cycle
system.cpu0.iq.issued_per_cycle::0           27907673     91.61%     91.61% # Number of insts issued each cycle
system.cpu0.iq.issued_per_cycle::1             997294      3.27%     94.88% # Number of insts issued each cycle
system.cpu0.iq.issued_per_cycle::2             536515      1.76%     96.64% # Number of insts issued each cycle
system.cpu0.iq.issued_per_cycle::3             367799      1.21%     97.85% # Number of insts issued each cycle
system.cpu0.iq.issued_per_cycle::4             377746      1.24%     99.09% # Number of insts issued each cycle
system.cpu0.iq.issued_per_cycle::5             121406      0.40%     99.49% # Number of insts issued each cycle
system.cpu0.iq.issued_per_cycle::6              95101      0.31%     99.80% # Number of insts issued each cycle
system.cpu0.iq.issued_per_cycle::7              35272      0.12%     99.92% # Number of insts issued each cycle
system.cpu0.iq.issued_per_cycle::8              25551      0.08%    100.00% # Number of insts issued each cycle
system.cpu0.iq.issued_per_cycle::overflows            0      0.00%    100.00% # Number of insts issued each cycle
system.cpu0.iq.issued_per_cycle::min_value            0                       # Number of insts issued each cycle
system.cpu0.iq.issued_per_cycle::max_value            8                       # Number of insts issued each cycle
system.cpu0.iq.issued_per_cycle::total       30464357                       # Number of insts issued each cycle
system.cpu0.iq.fu_full::No_OpClass                  0      0.00%      0.00% # attempts to use FU when none available
system.cpu0.iq.fu_full::IntAlu                  13726     68.39%     68.39% # attempts to use FU when none available
system.cpu0.iq.fu_full::IntMult                     0      0.00%     68.39% # attempts to use FU when none available
system.cpu0.iq.fu_full::IntDiv                      0      0.00%     68.39% # attempts to use FU when none available
system.cpu0.iq.fu_full::FloatAdd                 1342      6.69%     75.07% # attempts to use FU when none available
system.cpu0.iq.fu_full::FloatCmp                    0      0.00%     75.07% # attempts to use FU when none available
system.cpu0.iq.fu_full::FloatCvt                    0      0.00%     75.07% # attempts to use FU when none available
system.cpu0.iq.fu_full::FloatMult                   0      0.00%     75.07% # attempts to use FU when none available
system.cpu0.iq.fu_full::FloatMultAcc                0      0.00%     75.07% # attempts to use FU when none available
system.cpu0.iq.fu_full::FloatDiv                    0      0.00%     75.07% # attempts to use FU when none available
system.cpu0.iq.fu_full::FloatMisc                   0      0.00%     75.07% # attempts to use FU when none available
system.cpu0.iq.fu_full::FloatSqrt                   0      0.00%     75.07% # attempts to use FU when none available
system.cpu0.iq.fu_full::SimdAdd                     0      0.00%     75.07% # attempts to use FU when none available
system.cpu0.iq.fu_full::SimdAddAcc                  0      0.00%     75.07% # attempts to use FU when none available
system.cpu0.iq.fu_full::SimdAlu                     0      0.00%     75.07% # attempts to use FU when none available
system.cpu0.iq.fu_full::SimdCmp                     0      0.00%     75.07% # attempts to use FU when none available
system.cpu0.iq.fu_full::SimdCvt                     0      0.00%     75.07% # attempts to use FU when none available
system.cpu0.iq.fu_full::SimdMisc                    0      0.00%     75.07% # attempts to use FU when none available
system.cpu0.iq.fu_full::SimdMult                    0      0.00%     75.07% # attempts to use FU when none available
system.cpu0.iq.fu_full::SimdMultAcc                 0      0.00%     75.07% # attempts to use FU when none available
system.cpu0.iq.fu_full::SimdShift                   0      0.00%     75.07% # attempts to use FU when none available
system.cpu0.iq.fu_full::SimdShiftAcc                0      0.00%     75.07% # attempts to use FU when none available
system.cpu0.iq.fu_full::SimdSqrt                    0      0.00%     75.07% # attempts to use FU when none available
system.cpu0.iq.fu_full::SimdFloatAdd                0      0.00%     75.07% # attempts to use FU when none available
system.cpu0.iq.fu_full::SimdFloatAlu                0      0.00%     75.07% # attempts to use FU when none available
system.cpu0.iq.fu_full::SimdFloatCmp                0      0.00%     75.07% # attempts to use FU when none available
system.cpu0.iq.fu_full::SimdFloatCvt                0      0.00%     75.07% # attempts to use FU when none available
system.cpu0.iq.fu_full::SimdFloatDiv                0      0.00%     75.07% # attempts to use FU when none available
system.cpu0.iq.fu_full::SimdFloatMisc               0      0.00%     75.07% # attempts to use FU when none available
system.cpu0.iq.fu_full::SimdFloatMult               0      0.00%     75.07% # attempts to use FU when none available
system.cpu0.iq.fu_full::SimdFloatMultAcc            0      0.00%     75.07% # attempts to use FU when none available
system.cpu0.iq.fu_full::SimdFloatSqrt               0      0.00%     75.07% # attempts to use FU when none available
system.cpu0.iq.fu_full::MemRead                  4522     22.53%     97.60% # attempts to use FU when none available
system.cpu0.iq.fu_full::MemWrite                  283      1.41%     99.01% # attempts to use FU when none available
system.cpu0.iq.fu_full::FloatMemRead              180      0.90%     99.91% # attempts to use FU when none available
system.cpu0.iq.fu_full::FloatMemWrite              18      0.09%    100.00% # attempts to use FU when none available
system.cpu0.iq.fu_full::IprAccess                   0      0.00%    100.00% # attempts to use FU when none available
system.cpu0.iq.fu_full::InstPrefetch                0      0.00%    100.00% # attempts to use FU when none available
system.cpu0.iq.FU_type_0::No_OpClass            22794      0.36%      0.36% # Type of FU issued
system.cpu0.iq.FU_type_0::IntAlu              5183768     82.10%     82.47% # Type of FU issued
system.cpu0.iq.FU_type_0::IntMult                1422      0.02%     82.49% # Type of FU issued
system.cpu0.iq.FU_type_0::IntDiv                11826      0.19%     82.67% # Type of FU issued
system.cpu0.iq.FU_type_0::FloatAdd              17113      0.27%     82.95% # Type of FU issued
system.cpu0.iq.FU_type_0::FloatCmp                  0      0.00%     82.95% # Type of FU issued
system.cpu0.iq.FU_type_0::FloatCvt                  0      0.00%     82.95% # Type of FU issued
system.cpu0.iq.FU_type_0::FloatMult                 0      0.00%     82.95% # Type of FU issued
system.cpu0.iq.FU_type_0::FloatMultAcc              0      0.00%     82.95% # Type of FU issued
system.cpu0.iq.FU_type_0::FloatDiv                  0      0.00%     82.95% # Type of FU issued
system.cpu0.iq.FU_type_0::FloatMisc                 0      0.00%     82.95% # Type of FU issued
system.cpu0.iq.FU_type_0::FloatSqrt                 0      0.00%     82.95% # Type of FU issued
system.cpu0.iq.FU_type_0::SimdAdd                   0      0.00%     82.95% # Type of FU issued
system.cpu0.iq.FU_type_0::SimdAddAcc                0      0.00%     82.95% # Type of FU issued
system.cpu0.iq.FU_type_0::SimdAlu                   0      0.00%     82.95% # Type of FU issued
system.cpu0.iq.FU_type_0::SimdCmp                   0      0.00%     82.95% # Type of FU issued
system.cpu0.iq.FU_type_0::SimdCvt                   0      0.00%     82.95% # Type of FU issued
system.cpu0.iq.FU_type_0::SimdMisc                  0      0.00%     82.95% # Type of FU issued
system.cpu0.iq.FU_type_0::SimdMult                  0      0.00%     82.95% # Type of FU issued
system.cpu0.iq.FU_type_0::SimdMultAcc               0      0.00%     82.95% # Type of FU issued
system.cpu0.iq.FU_type_0::SimdShift                 0      0.00%     82.95% # Type of FU issued
system.cpu0.iq.FU_type_0::SimdShiftAcc              0      0.00%     82.95% # Type of FU issued
system.cpu0.iq.FU_type_0::SimdSqrt                  0      0.00%     82.95% # Type of FU issued
system.cpu0.iq.FU_type_0::SimdFloatAdd              0      0.00%     82.95% # Type of FU issued
system.cpu0.iq.FU_type_0::SimdFloatAlu              0      0.00%     82.95% # Type of FU issued
system.cpu0.iq.FU_type_0::SimdFloatCmp              0      0.00%     82.95% # Type of FU issued
system.cpu0.iq.FU_type_0::SimdFloatCvt              0      0.00%     82.95% # Type of FU issued
system.cpu0.iq.FU_type_0::SimdFloatDiv              0      0.00%     82.95% # Type of FU issued
system.cpu0.iq.FU_type_0::SimdFloatMisc             0      0.00%     82.95% # Type of FU issued
system.cpu0.iq.FU_type_0::SimdFloatMult             0      0.00%     82.95% # Type of FU issued
system.cpu0.iq.FU_type_0::SimdFloatMultAcc            0      0.00%     82.95% # Type of FU issued
system.cpu0.iq.FU_type_0::SimdFloatSqrt             0      0.00%     82.95% # Type of FU issued
system.cpu0.iq.FU_type_0::MemRead              998061     15.81%     98.75% # Type of FU issued
system.cpu0.iq.FU_type_0::MemWrite              75156      1.19%     99.94% # Type of FU issued
system.cpu0.iq.FU_type_0::FloatMemRead           3453      0.05%    100.00% # Type of FU issued
system.cpu0.iq.FU_type_0::FloatMemWrite            60      0.00%    100.00% # Type of FU issued
system.cpu0.iq.FU_type_0::IprAccess                 0      0.00%    100.00% # Type of FU issued
system.cpu0.iq.FU_type_0::InstPrefetch              0      0.00%    100.00% # Type of FU issued
system.cpu0.iq.FU_type_0::total               6313653                       # Type of FU issued
system.cpu0.iq.rate                          0.206770                       # Inst issue rate
system.cpu0.iq.fu_busy_cnt                      20071                       # FU busy when requested
system.cpu0.iq.fu_busy_rate                  0.003179                       # FU busy rate (busy events/executed inst)
system.cpu0.iq.int_inst_queue_reads          43076683                       # Number of integer instruction queue reads
system.cpu0.iq.int_inst_queue_writes         14183236                       # Number of integer instruction queue writes
system.cpu0.iq.int_inst_queue_wakeup_accesses      6045134                       # Number of integer instruction queue wakeup accesses
system.cpu0.iq.fp_inst_queue_reads              43093                       # Number of floating instruction queue reads
system.cpu0.iq.fp_inst_queue_writes             40698                       # Number of floating instruction queue writes
system.cpu0.iq.fp_inst_queue_wakeup_accesses        18515                       # Number of floating instruction queue wakeup accesses
system.cpu0.iq.vec_inst_queue_reads                 0                       # Number of vector instruction queue reads
system.cpu0.iq.vec_inst_queue_writes                0                       # Number of vector instruction queue writes
system.cpu0.iq.vec_inst_queue_wakeup_accesses            0                       # Number of vector instruction queue wakeup accesses
system.cpu0.iq.int_alu_accesses               6288758                       # Number of integer alu accesses
system.cpu0.iq.fp_alu_accesses                  22172                       # Number of floating point alu accesses
system.cpu0.iq.vec_alu_accesses                     0                       # Number of vector alu accesses
system.cpu0.iew.lsq.thread0.forwLoads            5645                       # Number of loads that had data forwarded from stores
system.cpu0.iew.lsq.thread0.invAddrLoads            0                       # Number of loads ignored due to an invalid address
system.cpu0.iew.lsq.thread0.squashedLoads      1038646                       # Number of loads squashed
system.cpu0.iew.lsq.thread0.ignoredResponses          195                       # Number of memory responses ignored because the instruction is squashed
system.cpu0.iew.lsq.thread0.memOrderViolation            2                       # Number of memory ordering violations
system.cpu0.iew.lsq.thread0.squashedStores        66649                       # Number of stores squashed
system.cpu0.iew.lsq.thread0.invAddrSwpfs            0                       # Number of software prefetches ignored due to an invalid address
system.cpu0.iew.lsq.thread0.blockedLoads            0                       # Number of blocked loads due to partial load-store forwarding
system.cpu0.iew.lsq.thread0.rescheduledLoads           49                       # Number of loads that were rescheduled
system.cpu0.iew.lsq.thread0.cacheBlocked         1994                       # Number of times an access to memory failed due to the cache being blocked
system.cpu0.iew.iewIdleCycles                       0                       # Number of cycles IEW is idle
system.cpu0.iew.iewSquashCycles                 86806                       # Number of cycles IEW is squashing
system.cpu0.iew.iewBlockCycles               24323929                       # Number of cycles IEW is blocking
system.cpu0.iew.iewUnblockCycles               301167                       # Number of cycles IEW is unblocking
system.cpu0.iew.iewDispatchedInsts            8751512                       # Number of instructions dispatched to IQ
system.cpu0.iew.iewDispSquashedInsts             5170                       # Number of squashed instructions skipped by dispatch
system.cpu0.iew.iewDispLoadInsts              1653939                       # Number of dispatched load instructions
system.cpu0.iew.iewDispStoreInsts              101359                       # Number of dispatched store instructions
system.cpu0.iew.iewDispNonSpecInsts              1955                       # Number of dispatched non-speculative instructions
system.cpu0.iew.iewIQFullEvents                 22236                       # Number of times the IQ has become full, causing a stall
system.cpu0.iew.iewLSQFullEvents                63667                       # Number of times the LSQ has become full, causing a stall
system.cpu0.iew.memOrderViolationEvents             2                       # Number of memory order violations
system.cpu0.iew.predictedTakenIncorrect         45791                       # Number of branches that were predicted taken incorrectly
system.cpu0.iew.predictedNotTakenIncorrect        50528                       # Number of branches that were predicted not taken incorrectly
system.cpu0.iew.branchMispredicts               96319                       # Number of branch mispredicts detected at execute
system.cpu0.iew.iewExecutedInsts              6192574                       # Number of executed instructions
system.cpu0.iew.iewExecLoadInsts               953894                       # Number of load instructions executed
system.cpu0.iew.iewExecSquashedInsts           121079                       # Number of squashed instructions skipped in execute
system.cpu0.iew.exec_swp                            0                       # number of swp insts executed
system.cpu0.iew.exec_nop                            0                       # number of nop insts executed
system.cpu0.iew.exec_refs                     1023486                       # number of memory reference insts executed
system.cpu0.iew.exec_branches                  746869                       # Number of branches executed
system.cpu0.iew.exec_stores                     69592                       # Number of stores executed
system.cpu0.iew.exec_rate                    0.202805                       # Inst execution rate
system.cpu0.iew.wb_sent                       6085249                       # cumulative count of insts sent to commit
system.cpu0.iew.wb_count                      6063649                       # cumulative count of insts written-back
system.cpu0.iew.wb_producers                  4475103                       # num instructions producing a value
system.cpu0.iew.wb_consumers                  7102036                       # num instructions consuming a value
system.cpu0.iew.wb_rate                      0.198582                       # insts written-back per cycle
system.cpu0.iew.wb_fanout                    0.630116                       # average fanout of values written-back
system.cpu0.commit.commitSquashedInsts        5473314                       # The number of squashed insts skipped by commit
system.cpu0.commit.commitNonSpecStalls              1                       # The number of times commit has been forced to stall to communicate backwards
system.cpu0.commit.branchMispredicts            86806                       # The number of times a branch was mispredicted
system.cpu0.commit.committed_per_cycle::samples     29686594                       # Number of insts commited each cycle
system.cpu0.commit.committed_per_cycle::mean     0.110457                       # Number of insts commited each cycle
system.cpu0.commit.committed_per_cycle::stdev     0.616938                       # Number of insts commited each cycle
system.cpu0.commit.committed_per_cycle::underflows            0      0.00%      0.00% # Number of insts commited each cycle
system.cpu0.commit.committed_per_cycle::0     28281921     95.27%     95.27% # Number of insts commited each cycle
system.cpu0.commit.committed_per_cycle::1       642163      2.16%     97.43% # Number of insts commited each cycle
system.cpu0.commit.committed_per_cycle::2       155027      0.52%     97.95% # Number of insts commited each cycle
system.cpu0.commit.committed_per_cycle::3       417880      1.41%     99.36% # Number of insts commited each cycle
system.cpu0.commit.committed_per_cycle::4        74185      0.25%     99.61% # Number of insts commited each cycle
system.cpu0.commit.committed_per_cycle::5        41759      0.14%     99.75% # Number of insts commited each cycle
system.cpu0.commit.committed_per_cycle::6         8339      0.03%     99.78% # Number of insts commited each cycle
system.cpu0.commit.committed_per_cycle::7         4901      0.02%     99.80% # Number of insts commited each cycle
system.cpu0.commit.committed_per_cycle::8        60419      0.20%    100.00% # Number of insts commited each cycle
system.cpu0.commit.committed_per_cycle::overflows            0      0.00%    100.00% # Number of insts commited each cycle
system.cpu0.commit.committed_per_cycle::min_value            0                       # Number of insts commited each cycle
system.cpu0.commit.committed_per_cycle::max_value            8                       # Number of insts commited each cycle
system.cpu0.commit.committed_per_cycle::total     29686594                       # Number of insts commited each cycle
system.cpu0.commit.committedInsts             1640761                       # Number of instructions committed
system.cpu0.commit.committedOps               3279085                       # Number of ops (including micro ops) committed
system.cpu0.commit.swp_count                        0                       # Number of s/w prefetches committed
system.cpu0.commit.refs                        650004                       # Number of memory references committed
system.cpu0.commit.loads                       615306                       # Number of loads committed
system.cpu0.commit.membars                          0                       # Number of memory barriers committed
system.cpu0.commit.branches                    588647                       # Number of branches committed
system.cpu0.commit.vec_insts                        0                       # Number of committed Vector instructions.
system.cpu0.commit.fp_insts                     13864                       # Number of committed floating point instructions.
system.cpu0.commit.int_insts                  3265079                       # Number of committed integer instructions.
system.cpu0.commit.function_calls                6129                       # Number of function calls committed.
system.cpu0.commit.op_class_0::No_OpClass         4157      0.13%      0.13% # Class of committed instruction
system.cpu0.commit.op_class_0::IntAlu         2602810     79.38%     79.50% # Class of committed instruction
system.cpu0.commit.op_class_0::IntMult            245      0.01%     79.51% # Class of committed instruction
system.cpu0.commit.op_class_0::IntDiv           10013      0.31%     79.82% # Class of committed instruction
system.cpu0.commit.op_class_0::FloatAdd         11856      0.36%     80.18% # Class of committed instruction
system.cpu0.commit.op_class_0::FloatCmp             0      0.00%     80.18% # Class of committed instruction
system.cpu0.commit.op_class_0::FloatCvt             0      0.00%     80.18% # Class of committed instruction
system.cpu0.commit.op_class_0::FloatMult            0      0.00%     80.18% # Class of committed instruction
system.cpu0.commit.op_class_0::FloatMultAcc            0      0.00%     80.18% # Class of committed instruction
system.cpu0.commit.op_class_0::FloatDiv             0      0.00%     80.18% # Class of committed instruction
system.cpu0.commit.op_class_0::FloatMisc            0      0.00%     80.18% # Class of committed instruction
system.cpu0.commit.op_class_0::FloatSqrt            0      0.00%     80.18% # Class of committed instruction
system.cpu0.commit.op_class_0::SimdAdd              0      0.00%     80.18% # Class of committed instruction
system.cpu0.commit.op_class_0::SimdAddAcc            0      0.00%     80.18% # Class of committed instruction
system.cpu0.commit.op_class_0::SimdAlu              0      0.00%     80.18% # Class of committed instruction
system.cpu0.commit.op_class_0::SimdCmp              0      0.00%     80.18% # Class of committed instruction
system.cpu0.commit.op_class_0::SimdCvt              0      0.00%     80.18% # Class of committed instruction
system.cpu0.commit.op_class_0::SimdMisc             0      0.00%     80.18% # Class of committed instruction
system.cpu0.commit.op_class_0::SimdMult             0      0.00%     80.18% # Class of committed instruction
system.cpu0.commit.op_class_0::SimdMultAcc            0      0.00%     80.18% # Class of committed instruction
system.cpu0.commit.op_class_0::SimdShift            0      0.00%     80.18% # Class of committed instruction
system.cpu0.commit.op_class_0::SimdShiftAcc            0      0.00%     80.18% # Class of committed instruction
system.cpu0.commit.op_class_0::SimdSqrt             0      0.00%     80.18% # Class of committed instruction
system.cpu0.commit.op_class_0::SimdFloatAdd            0      0.00%     80.18% # Class of committed instruction
system.cpu0.commit.op_class_0::SimdFloatAlu            0      0.00%     80.18% # Class of committed instruction
system.cpu0.commit.op_class_0::SimdFloatCmp            0      0.00%     80.18% # Class of committed instruction
system.cpu0.commit.op_class_0::SimdFloatCvt            0      0.00%     80.18% # Class of committed instruction
system.cpu0.commit.op_class_0::SimdFloatDiv            0      0.00%     80.18% # Class of committed instruction
system.cpu0.commit.op_class_0::SimdFloatMisc            0      0.00%     80.18% # Class of committed instruction
system.cpu0.commit.op_class_0::SimdFloatMult            0      0.00%     80.18% # Class of committed instruction
system.cpu0.commit.op_class_0::SimdFloatMultAcc            0      0.00%     80.18% # Class of committed instruction
system.cpu0.commit.op_class_0::SimdFloatSqrt            0      0.00%     80.18% # Class of committed instruction
system.cpu0.commit.op_class_0::MemRead         613298     18.70%     98.88% # Class of committed instruction
system.cpu0.commit.op_class_0::MemWrite         34698      1.06%     99.94% # Class of committed instruction
system.cpu0.commit.op_class_0::FloatMemRead         2008      0.06%    100.00% # Class of committed instruction
system.cpu0.commit.op_class_0::FloatMemWrite            0      0.00%    100.00% # Class of committed instruction
system.cpu0.commit.op_class_0::IprAccess            0      0.00%    100.00% # Class of committed instruction
system.cpu0.commit.op_class_0::InstPrefetch            0      0.00%    100.00% # Class of committed instruction
system.cpu0.commit.op_class_0::total          3279085                       # Class of committed instruction
system.cpu0.commit.bw_lim_events                60419                       # number cycles where commit BW limit reached
system.cpu0.rob.rob_reads                    38378574                       # The number of ROB reads
system.cpu0.rob.rob_writes                   18284728                       # The number of ROB writes
system.cpu0.timesIdled                            602                       # Number of times that the entire CPU went into an idle state and unscheduled itself
system.cpu0.idleCycles                          70331                       # Total number of cycles that the CPU has spent unscheduled due to idling
system.cpu0.committedInsts                    1640761                       # Number of Instructions Simulated
system.cpu0.committedOps                      3279085                       # Number of Ops (including micro ops) Simulated
system.cpu0.cpi                             18.610077                       # CPI: Cycles Per Instruction
system.cpu0.cpi_total                       18.610077                       # CPI: Total CPI of All Threads
system.cpu0.ipc                              0.053734                       # IPC: Instructions Per Cycle
system.cpu0.ipc_total                        0.053734                       # IPC: Total IPC of All Threads
system.cpu0.int_regfile_reads                 6257936                       # number of integer regfile reads
system.cpu0.int_regfile_writes                5254808                       # number of integer regfile writes
system.cpu0.fp_regfile_reads                    32874                       # number of floating regfile reads
system.cpu0.fp_regfile_writes                   16391                       # number of floating regfile writes
system.cpu0.cc_regfile_reads                  3906932                       # number of cc regfile reads
system.cpu0.cc_regfile_writes                 1687067                       # number of cc regfile writes
system.cpu0.misc_regfile_reads                3254643                       # number of misc regfile reads
system.cpu0.dcache.tags.pwrStateResidencyTicks::UNDEFINED  15267344125                       # Cumulative time (in ticks) in various power states
system.cpu0.dcache.tags.replacements           320096                       # number of replacements
system.cpu0.dcache.tags.tagsinuse                1024                       # Cycle average of tags in use
system.cpu0.dcache.tags.total_refs             418599                       # Total number of references to valid blocks.
system.cpu0.dcache.tags.sampled_refs           320096                       # Sample count of references to valid blocks.
system.cpu0.dcache.tags.avg_refs             1.307730                       # Average number of references to valid blocks.
system.cpu0.dcache.tags.warmup_cycle                0                       # Cycle when the warmup percentage was hit.
system.cpu0.dcache.tags.occ_blocks::cpu0.data         1024                       # Average occupied blocks per requestor
system.cpu0.dcache.tags.occ_percent::cpu0.data            1                       # Average percentage of cache occupancy
system.cpu0.dcache.tags.occ_percent::total            1                       # Average percentage of cache occupancy
system.cpu0.dcache.tags.occ_task_id_blocks::1024         1024                       # Occupied blocks per task id
system.cpu0.dcache.tags.age_task_id_blocks_1024::0          631                       # Occupied blocks per task id
system.cpu0.dcache.tags.age_task_id_blocks_1024::1          380                       # Occupied blocks per task id
system.cpu0.dcache.tags.age_task_id_blocks_1024::2           13                       # Occupied blocks per task id
system.cpu0.dcache.tags.occ_task_id_percent::1024            1                       # Percentage of cache occupancy per task id
system.cpu0.dcache.tags.tag_accesses          4230468                       # Number of tag accesses
system.cpu0.dcache.tags.data_accesses         4230468                       # Number of data accesses
system.cpu0.dcache.pwrStateResidencyTicks::UNDEFINED  15267344125                       # Cumulative time (in ticks) in various power states
system.cpu0.dcache.ReadReq_hits::cpu0.data       384189                       # number of ReadReq hits
system.cpu0.dcache.ReadReq_hits::total         384189                       # number of ReadReq hits
system.cpu0.dcache.WriteReq_hits::cpu0.data        33432                       # number of WriteReq hits
system.cpu0.dcache.WriteReq_hits::total         33432                       # number of WriteReq hits
system.cpu0.dcache.demand_hits::cpu0.data       417621                       # number of demand (read+write) hits
system.cpu0.dcache.demand_hits::total          417621                       # number of demand (read+write) hits
system.cpu0.dcache.overall_hits::cpu0.data       417621                       # number of overall hits
system.cpu0.dcache.overall_hits::total         417621                       # number of overall hits
system.cpu0.dcache.ReadReq_misses::cpu0.data       558706                       # number of ReadReq misses
system.cpu0.dcache.ReadReq_misses::total       558706                       # number of ReadReq misses
system.cpu0.dcache.WriteReq_misses::cpu0.data         1266                       # number of WriteReq misses
system.cpu0.dcache.WriteReq_misses::total         1266                       # number of WriteReq misses
system.cpu0.dcache.demand_misses::cpu0.data       559972                       # number of demand (read+write) misses
system.cpu0.dcache.demand_misses::total        559972                       # number of demand (read+write) misses
system.cpu0.dcache.overall_misses::cpu0.data       559972                       # number of overall misses
system.cpu0.dcache.overall_misses::total       559972                       # number of overall misses
system.cpu0.dcache.ReadReq_miss_latency::cpu0.data  34266873000                       # number of ReadReq miss cycles
system.cpu0.dcache.ReadReq_miss_latency::total  34266873000                       # number of ReadReq miss cycles
system.cpu0.dcache.WriteReq_miss_latency::cpu0.data     48539998                       # number of WriteReq miss cycles
system.cpu0.dcache.WriteReq_miss_latency::total     48539998                       # number of WriteReq miss cycles
system.cpu0.dcache.demand_miss_latency::cpu0.data  34315412998                       # number of demand (read+write) miss cycles
system.cpu0.dcache.demand_miss_latency::total  34315412998                       # number of demand (read+write) miss cycles
system.cpu0.dcache.overall_miss_latency::cpu0.data  34315412998                       # number of overall miss cycles
system.cpu0.dcache.overall_miss_latency::total  34315412998                       # number of overall miss cycles
system.cpu0.dcache.ReadReq_accesses::cpu0.data       942895                       # number of ReadReq accesses(hits+misses)
system.cpu0.dcache.ReadReq_accesses::total       942895                       # number of ReadReq accesses(hits+misses)
system.cpu0.dcache.WriteReq_accesses::cpu0.data        34698                       # number of WriteReq accesses(hits+misses)
system.cpu0.dcache.WriteReq_accesses::total        34698                       # number of WriteReq accesses(hits+misses)
system.cpu0.dcache.demand_accesses::cpu0.data       977593                       # number of demand (read+write) accesses
system.cpu0.dcache.demand_accesses::total       977593                       # number of demand (read+write) accesses
system.cpu0.dcache.overall_accesses::cpu0.data       977593                       # number of overall (read+write) accesses
system.cpu0.dcache.overall_accesses::total       977593                       # number of overall (read+write) accesses
system.cpu0.dcache.ReadReq_miss_rate::cpu0.data     0.592543                       # miss rate for ReadReq accesses
system.cpu0.dcache.ReadReq_miss_rate::total     0.592543                       # miss rate for ReadReq accesses
system.cpu0.dcache.WriteReq_miss_rate::cpu0.data     0.036486                       # miss rate for WriteReq accesses
[...]
system.l2.ReadExReq_miss_rate::cpu0.data     0.270916                       # miss rate for ReadExReq accesses
system.l2.ReadExReq_miss_rate::total         0.270916                       # miss rate for ReadExReq accesses
system.l2.ReadCleanReq_miss_rate::cpu0.inst            1                       # miss rate for ReadCleanReq accesses
system.l2.ReadCleanReq_miss_rate::total             1                       # miss rate for ReadCleanReq accesses
system.l2.ReadSharedReq_miss_rate::cpu0.data     0.558259                       # miss rate for ReadSharedReq accesses
system.l2.ReadSharedReq_miss_rate::total     0.558259                       # miss rate for ReadSharedReq accesses
system.l2.demand_miss_rate::cpu0.inst               1                       # miss rate for demand accesses
system.l2.demand_miss_rate::cpu0.data        0.557133                       # miss rate for demand accesses
system.l2.demand_miss_rate::total            0.557134                       # miss rate for demand accesses
system.l2.overall_miss_rate::cpu0.inst              1                       # miss rate for overall accesses
system.l2.overall_miss_rate::cpu0.data       0.557133                       # miss rate for overall accesses
system.l2.overall_miss_rate::total           0.557134                       # miss rate for overall accesses
system.l2.ReadExReq_avg_miss_latency::cpu0.data 103063.235294                       # average ReadExReq miss latency
system.l2.ReadExReq_avg_miss_latency::total 103063.235294                       # average ReadExReq miss latency
system.l2.ReadCleanReq_avg_miss_latency::cpu0.inst        98000                       # average ReadCleanReq miss latency
system.l2.ReadCleanReq_avg_miss_latency::total        98000                       # average ReadCleanReq miss latency
system.l2.ReadSharedReq_avg_miss_latency::cpu0.data 95529.983820                       # average ReadSharedReq miss latency
system.l2.ReadSharedReq_avg_miss_latency::total 95529.983820                       # average ReadSharedReq miss latency
system.l2.demand_avg_miss_latency::cpu0.inst        98000                       # average overall miss latency
system.l2.demand_avg_miss_latency::cpu0.data 95544.346066                       # average overall miss latency
system.l2.demand_avg_miss_latency::total 95544.359836                       # average overall miss latency
system.l2.overall_avg_miss_latency::cpu0.inst        98000                       # average overall miss latency
system.l2.overall_avg_miss_latency::cpu0.data 95544.346066                       # average overall miss latency
system.l2.overall_avg_miss_latency::total 95544.359836                       # average overall miss latency
system.l2.blocked_cycles::no_mshrs                  0                       # number of cycles access was blocked
system.l2.blocked_cycles::no_targets                0                       # number of cycles access was blocked
system.l2.blocked::no_mshrs                         0                       # number of cycles access was blocked
system.l2.blocked::no_targets                       0                       # number of cycles access was blocked
system.l2.avg_blocked_cycles::no_mshrs            nan                       # average number of cycles each access was blocked
system.l2.avg_blocked_cycles::no_targets          nan                       # average number of cycles each access was blocked
system.l2.writebacks::writebacks                  455                       # number of writebacks
system.l2.writebacks::total                       455                       # number of writebacks
system.l2.ReadExReq_mshr_misses::cpu0.data          340                       # number of ReadExReq MSHR misses
system.l2.ReadExReq_mshr_misses::total            340                       # number of ReadExReq MSHR misses
system.l2.ReadCleanReq_mshr_misses::cpu0.inst            1                       # number of ReadCleanReq MSHR misses
system.l2.ReadCleanReq_mshr_misses::total            1                       # number of ReadCleanReq MSHR misses
system.l2.ReadSharedReq_mshr_misses::cpu0.data       177996                       # number of ReadSharedReq MSHR misses
system.l2.ReadSharedReq_mshr_misses::total       177996                       # number of ReadSharedReq MSHR misses
system.l2.demand_mshr_misses::cpu0.inst             1                       # number of demand (read+write) MSHR misses
system.l2.demand_mshr_misses::cpu0.data        178336                       # number of demand (read+write) MSHR misses
system.l2.demand_mshr_misses::total            178337                       # number of demand (read+write) MSHR misses
system.l2.overall_mshr_misses::cpu0.inst            1                       # number of overall MSHR misses
system.l2.overall_mshr_misses::cpu0.data       178336                       # number of overall MSHR misses
system.l2.overall_mshr_misses::total           178337                       # number of overall MSHR misses
system.l2.ReadExReq_mshr_miss_latency::cpu0.data     31641500                       # number of ReadExReq MSHR miss cycles
system.l2.ReadExReq_mshr_miss_latency::total     31641500                       # number of ReadExReq MSHR miss cycles
system.l2.ReadCleanReq_mshr_miss_latency::cpu0.inst        88000                       # number of ReadCleanReq MSHR miss cycles
system.l2.ReadCleanReq_mshr_miss_latency::total        88000                       # number of ReadCleanReq MSHR miss cycles
system.l2.ReadSharedReq_mshr_miss_latency::cpu0.data  15223985000                       # number of ReadSharedReq MSHR miss cycles
system.l2.ReadSharedReq_mshr_miss_latency::total  15223985000                       # number of ReadSharedReq MSHR miss cycles
system.l2.demand_mshr_miss_latency::cpu0.inst        88000                       # number of demand (read+write) MSHR miss cycles
system.l2.demand_mshr_miss_latency::cpu0.data  15255626500                       # number of demand (read+write) MSHR miss cycles
system.l2.demand_mshr_miss_latency::total  15255714500                       # number of demand (read+write) MSHR miss cycles
system.l2.overall_mshr_miss_latency::cpu0.inst        88000                       # number of overall MSHR miss cycles
system.l2.overall_mshr_miss_latency::cpu0.data  15255626500                       # number of overall MSHR miss cycles
system.l2.overall_mshr_miss_latency::total  15255714500                       # number of overall MSHR miss cycles
system.l2.ReadExReq_mshr_miss_rate::cpu0.data     0.270916                       # mshr miss rate for ReadExReq accesses
system.l2.ReadExReq_mshr_miss_rate::total     0.270916                       # mshr miss rate for ReadExReq accesses
system.l2.ReadCleanReq_mshr_miss_rate::cpu0.inst            1                       # mshr miss rate for ReadCleanReq accesses
system.l2.ReadCleanReq_mshr_miss_rate::total            1                       # mshr miss rate for ReadCleanReq accesses
system.l2.ReadSharedReq_mshr_miss_rate::cpu0.data     0.558259                       # mshr miss rate for ReadSharedReq accesses
system.l2.ReadSharedReq_mshr_miss_rate::total     0.558259                       # mshr miss rate for ReadSharedReq accesses
system.l2.demand_mshr_miss_rate::cpu0.inst            1                       # mshr miss rate for demand accesses
system.l2.demand_mshr_miss_rate::cpu0.data     0.557133                       # mshr miss rate for demand accesses
system.l2.demand_mshr_miss_rate::total       0.557134                       # mshr miss rate for demand accesses
system.l2.overall_mshr_miss_rate::cpu0.inst            1                       # mshr miss rate for overall accesses
system.l2.overall_mshr_miss_rate::cpu0.data     0.557133                       # mshr miss rate for overall accesses
system.l2.overall_mshr_miss_rate::total      0.557134                       # mshr miss rate for overall accesses
system.l2.ReadExReq_avg_mshr_miss_latency::cpu0.data 93063.235294                       # average ReadExReq mshr miss latency
system.l2.ReadExReq_avg_mshr_miss_latency::total 93063.235294                       # average ReadExReq mshr miss latency
system.l2.ReadCleanReq_avg_mshr_miss_latency::cpu0.inst        88000                       # average ReadCleanReq mshr miss latency
system.l2.ReadCleanReq_avg_mshr_miss_latency::total        88000                       # average ReadCleanReq mshr miss latency
system.l2.ReadSharedReq_avg_mshr_miss_latency::cpu0.data 85529.927639                       # average ReadSharedReq mshr miss latency
system.l2.ReadSharedReq_avg_mshr_miss_latency::total 85529.927639                       # average ReadSharedReq mshr miss latency
system.l2.demand_avg_mshr_miss_latency::cpu0.inst        88000                       # average overall mshr miss latency
system.l2.demand_avg_mshr_miss_latency::cpu0.data 85544.289992                       # average overall mshr miss latency
system.l2.demand_avg_mshr_miss_latency::total 85544.303762                       # average overall mshr miss latency
system.l2.overall_avg_mshr_miss_latency::cpu0.inst        88000                       # average overall mshr miss latency
system.l2.overall_avg_mshr_miss_latency::cpu0.data 85544.289992                       # average overall mshr miss latency
system.l2.overall_avg_mshr_miss_latency::total 85544.303762                       # average overall mshr miss latency
system.membus.snoop_filter.tot_requests        356674                       # Total number of requests made to the snoop filter.
system.membus.snoop_filter.hit_single_requests       178338                       # Number of requests hitting in the snoop filter with a single holder of the requested data.
system.membus.snoop_filter.hit_multi_requests            0                       # Number of requests hitting in the snoop filter with multiple (>1) holders of the requested data.
system.membus.snoop_filter.tot_snoops               0                       # Total number of snoops made to the snoop filter.
system.membus.snoop_filter.hit_single_snoops            0                       # Number of snoops hitting in the snoop filter with a single holder of the requested data.
system.membus.snoop_filter.hit_multi_snoops            0                       # Number of snoops hitting in the snoop filter with multiple (>1) holders of the requested data.
system.membus.pwrStateResidencyTicks::UNDEFINED  15267344125                       # Cumulative time (in ticks) in various power states
system.membus.trans_dist::ReadResp             177998                       # Transaction distribution
system.membus.trans_dist::WritebackDirty          455                       # Transaction distribution
system.membus.trans_dist::CleanEvict           177882                       # Transaction distribution
system.membus.trans_dist::ReadExReq               340                       # Transaction distribution
system.membus.trans_dist::ReadExResp              340                       # Transaction distribution
system.membus.trans_dist::ReadSharedReq        177997                       # Transaction distribution
system.membus.pkt_count_system.l2.mem_side::system.mem_ctrls.port       535012                       # Packet count per connected master and slave (bytes)
system.membus.pkt_count_system.l2.mem_side::total       535012                       # Packet count per connected master and slave (bytes)
system.membus.pkt_count::total                 535012                       # Packet count per connected master and slave (bytes)
system.membus.pkt_size_system.l2.mem_side::system.mem_ctrls.port     11442752                       # Cumulative packet size per connected master and slave (bytes)
system.membus.pkt_size_system.l2.mem_side::total     11442752                       # Cumulative packet size per connected master and slave (bytes)
system.membus.pkt_size::total                11442752                       # Cumulative packet size per connected master and slave (bytes)
system.membus.snoops                                0                       # Total snoops (count)
system.membus.snoopTraffic                          0                       # Total snoop traffic (bytes)
system.membus.snoop_fanout::samples            178337                       # Request fanout histogram
system.membus.snoop_fanout::mean                    0                       # Request fanout histogram
system.membus.snoop_fanout::stdev                   0                       # Request fanout histogram
system.membus.snoop_fanout::underflows              0      0.00%      0.00% # Request fanout histogram
system.membus.snoop_fanout::0                  178337    100.00%    100.00% # Request fanout histogram
system.membus.snoop_fanout::1                       0      0.00%    100.00% # Request fanout histogram
system.membus.snoop_fanout::overflows               0      0.00%    100.00% # Request fanout histogram
system.membus.snoop_fanout::min_value               0                       # Request fanout histogram
system.membus.snoop_fanout::max_value               0                       # Request fanout histogram
system.membus.snoop_fanout::total              178337                       # Request fanout histogram
system.membus.reqLayer8.occupancy           418967500                       # Layer occupancy (ticks)
system.membus.reqLayer8.utilization               2.7                       # Layer utilization (%)
system.membus.respLayer1.occupancy          967357500                       # Layer occupancy (ticks)
system.membus.respLayer1.utilization              6.3                       # Layer utilization (%)
system.tol2bus.snoop_filter.tot_requests       640194                       # Total number of requests made to the snoop filter.
system.tol2bus.snoop_filter.hit_single_requests       320097                       # Number of requests hitting in the snoop filter with a single holder of the requested data.
system.tol2bus.snoop_filter.hit_multi_requests          410                       # Number of requests hitting in the snoop filter with multiple (>1) holders of the requested data.
system.tol2bus.snoop_filter.tot_snoops              2                       # Total number of snoops made to the snoop filter.
system.tol2bus.snoop_filter.hit_single_snoops            2                       # Number of snoops hitting in the snoop filter with a single holder of the requested data.
system.tol2bus.snoop_filter.hit_multi_snoops            0                       # Number of snoops hitting in the snoop filter with multiple (>1) holders of the requested data.
system.tol2bus.pwrStateResidencyTicks::UNDEFINED  15267344125                       # Cumulative time (in ticks) in various power states
system.tol2bus.trans_dist::ReadResp            318842                       # Transaction distribution
system.tol2bus.trans_dist::WritebackDirty         3948                       # Transaction distribution
system.tol2bus.trans_dist::WritebackClean            1                       # Transaction distribution
system.tol2bus.trans_dist::CleanEvict          494487                       # Transaction distribution
system.tol2bus.trans_dist::ReadExReq             1255                       # Transaction distribution
system.tol2bus.trans_dist::ReadExResp            1255                       # Transaction distribution
system.tol2bus.trans_dist::ReadCleanReq             1                       # Transaction distribution
system.tol2bus.trans_dist::ReadSharedReq       318841                       # Transaction distribution
system.tol2bus.pkt_count_system.cpu0.icache.mem_side::system.l2.cpu_side            3                       # Packet count per connected master and slave (bytes)
system.tol2bus.pkt_count_system.cpu0.dcache.mem_side::system.l2.cpu_side       960288                       # Packet count per connected master and slave (bytes)
system.tol2bus.pkt_count::total                960291                       # Packet count per connected master and slave (bytes)
system.tol2bus.pkt_size_system.cpu0.icache.mem_side::system.l2.cpu_side          128                       # Cumulative packet size per connected master and slave (bytes)
system.tol2bus.pkt_size_system.cpu0.dcache.mem_side::system.l2.cpu_side     20709696                       # Cumulative packet size per connected master and slave (bytes)
system.tol2bus.pkt_size::total               20709824                       # Cumulative packet size per connected master and slave (bytes)
system.tol2bus.snoops                          178339                       # Total snoops (count)
system.tol2bus.snoopTraffic                     29120                       # Total snoop traffic (bytes)
system.tol2bus.snoop_fanout::samples           498436                       # Request fanout histogram
system.tol2bus.snoop_fanout::mean            0.000827                       # Request fanout histogram
system.tol2bus.snoop_fanout::stdev           0.028739                       # Request fanout histogram
system.tol2bus.snoop_fanout::underflows             0      0.00%      0.00% # Request fanout histogram
system.tol2bus.snoop_fanout::0                 498024     99.92%     99.92% # Request fanout histogram
system.tol2bus.snoop_fanout::1                    412      0.08%    100.00% # Request fanout histogram
system.tol2bus.snoop_fanout::2                      0      0.00%    100.00% # Request fanout histogram
system.tol2bus.snoop_fanout::3                      0      0.00%    100.00% # Request fanout histogram
system.tol2bus.snoop_fanout::4                      0      0.00%    100.00% # Request fanout histogram
system.tol2bus.snoop_fanout::5                      0      0.00%    100.00% # Request fanout histogram
system.tol2bus.snoop_fanout::6                      0      0.00%    100.00% # Request fanout histogram
system.tol2bus.snoop_fanout::7                      0      0.00%    100.00% # Request fanout histogram
system.tol2bus.snoop_fanout::8                      0      0.00%    100.00% # Request fanout histogram
system.tol2bus.snoop_fanout::9                      0      0.00%    100.00% # Request fanout histogram
system.tol2bus.snoop_fanout::10                     0      0.00%    100.00% # Request fanout histogram
system.tol2bus.snoop_fanout::11                     0      0.00%    100.00% # Request fanout histogram
system.tol2bus.snoop_fanout::12                     0      0.00%    100.00% # Request fanout histogram
system.tol2bus.snoop_fanout::13                     0      0.00%    100.00% # Request fanout histogram
system.tol2bus.snoop_fanout::14                     0      0.00%    100.00% # Request fanout histogram
system.tol2bus.snoop_fanout::15                     0      0.00%    100.00% # Request fanout histogram
system.tol2bus.snoop_fanout::16                     0      0.00%    100.00% # Request fanout histogram
system.tol2bus.snoop_fanout::overflows              0      0.00%    100.00% # Request fanout histogram
system.tol2bus.snoop_fanout::min_value              0                       # Request fanout histogram
system.tol2bus.snoop_fanout::max_value              1                       # Request fanout histogram
system.tol2bus.snoop_fanout::total             498436                       # Request fanout histogram
system.tol2bus.reqLayer0.occupancy          323591000                       # Layer occupancy (ticks)
system.tol2bus.reqLayer0.utilization              2.1                       # Layer utilization (%)
system.tol2bus.respLayer0.occupancy              1500                       # Layer occupancy (ticks)
system.tol2bus.respLayer0.utilization             0.0                       # Layer utilization (%)
system.tol2bus.respLayer1.occupancy         480144000                       # Layer occupancy (ticks)
system.tol2bus.respLayer1.utilization             3.1                       # Layer utilization (%)

---------- End Simulation Statistics   ----------
