
---------- Begin Simulation Statistics ----------
sim_seconds                                  0.015267                       # Number of seconds simulated
sim_ticks                                 15267344125                       # Number of ticks simulated
final_tick                               7435196588875                       # Number of ticks from beginning of simulation (restored from checkpoints and never reset)
sim_freq                                 1000000000000                       # Frequency of simulated ticks
host_inst_rate                               76735312                       # Simulator instruction rate (inst/s)
host_op_rate                                143052665                       # Simulator op (including micro ops) rate (op/s)
host_tick_rate                              193668891                       # Simulator tick rate (ticks/s)
host_mem_usage                                2332656                       # Number of bytes of host memory used
host_seconds                                    78.83                       # Real time elapsed on the host
sim_insts                                  6049211648                       # Number of instructions simulated
sim_ops                                   11277154504                       # Number of ops (including micro ops) simulated
system.voltage_domain.voltage                       1                       # Voltage in Volts
system.clk_domain.clock                          1000                       # Clock period in ticks
system.mem_ctrls.pwrStateResidencyTicks::UNDEFINED  15267344125                       # Cumulative time (in ticks) in various power states
system.mem_ctrls.bytes_read::cpu0.data       12016128                       # Number of bytes read from this memory
system.mem_ctrls.bytes_read::total           12016128                       # Number of bytes read from this memory
system.mem_ctrls.bytes_written::writebacks        19136                       # Number of bytes written to this memory
system.mem_ctrls.bytes_written::total           19136                       # Number of bytes written to this memory
system.mem_ctrls.num_reads::cpu0.data          187752                       # Number of read requests responded to by this memory
system.mem_ctrls.num_reads::total              187752                       # Number of read requests responded to by this memory
system.mem_ctrls.num_writes::writebacks           299                       # Number of write requests responded to by this memory
system.mem_ctrls.num_writes::total                299                       # Number of write requests responded to by this memory
system.mem_ctrls.bw_read::cpu0.data         787047695                       # Total read bandwidth from this memory (bytes/s)
system.mem_ctrls.bw_read::total             787047695                       # Total read bandwidth from this memory (bytes/s)
system.mem_ctrls.bw_write::writebacks         1253394                       # Write bandwidth from this memory (bytes/s)
system.mem_ctrls.bw_write::total              1253394                       # Write bandwidth from this memory (bytes/s)
system.mem_ctrls.bw_total::writebacks         1253394                       # Total bandwidth to/from this memory (bytes/s)
system.mem_ctrls.bw_total::cpu0.data        787047695                       # Total bandwidth to/from this memory (bytes/s)
system.mem_ctrls.bw_total::total            788301089                       # Total bandwidth to/from this memory (bytes/s)
system.mem_ctrls.readReqs                      187752                       # Number of read requests accepted
system.mem_ctrls.writeReqs                        299                       # Number of write requests accepted
system.mem_ctrls.readBursts                    187752                       # Number of DRAM read bursts, including those serviced by the write queue
system.mem_ctrls.writeBursts                      299                       # Number of DRAM write bursts, including those merged in the write queue
system.mem_ctrls.bytesReadDRAM               12013120                       # Total number of bytes read from DRAM
system.mem_ctrls.bytesReadWrQ                    3008                       # Total number of bytes read from write queue
system.mem_ctrls.bytesWritten                   18560                       # Total number of bytes written to DRAM
system.mem_ctrls.bytesReadSys                12016128                       # Total read bytes from the system interface side
system.mem_ctrls.bytesWrittenSys                19136                       # Total written bytes from the system interface side
system.mem_ctrls.servicedByWrQ                     47                       # Number of DRAM read bursts serviced by the write queue
system.mem_ctrls.mergedWrBursts                     0                       # Number of DRAM write bursts merged with an existing one
system.mem_ctrls.neitherReadNorWriteReqs            0                       # Number of requests that are neither read nor write
system.mem_ctrls.perBankRdBursts::0             11455                       # Per bank write bursts
system.mem_ctrls.perBankRdBursts::1             11831                       # Per bank write bursts
system.mem_ctrls.perBankRdBursts::2             11679                       # Per bank write bursts
system.mem_ctrls.perBankRdBursts::3             11938                       # Per bank write bursts
system.mem_ctrls.perBankRdBursts::4             11648                       # Per bank write bursts
system.mem_ctrls.perBankRdBursts::5             11910                       # Per bank write bursts
system.mem_ctrls.perBankRdBursts::6             11944                       # Per bank write bursts
system.mem_ctrls.perBankRdBursts::7             11700                       # Per bank write bursts
system.mem_ctrls.perBankRdBursts::8             11472                       # Per bank write bursts
system.mem_ctrls.perBankRdBursts::9             11392                       # Per bank write bursts
system.mem_ctrls.perBankRdBursts::10            11484                       # Per bank write bursts
system.mem_ctrls.perBankRdBursts::11            11650                       # Per bank write bursts
system.mem_ctrls.perBankRdBursts::12            12137                       # Per bank write bursts
system.mem_ctrls.perBankRdBursts::13            12058                       # Per bank write bursts
system.mem_ctrls.perBankRdBursts::14            11820                       # Per bank write bursts
system.mem_ctrls.perBankRdBursts::15            11587                       # Per bank write bursts
system.mem_ctrls.perBankWrBursts::0                17                       # Per bank write bursts
system.mem_ctrls.perBankWrBursts::1                 0                       # Per bank write bursts
system.mem_ctrls.perBankWrBursts::2                 0                       # Per bank write bursts
system.mem_ctrls.perBankWrBursts::3                 0                       # Per bank write bursts
system.mem_ctrls.perBankWrBursts::4                 0                       # Per bank write bursts
system.mem_ctrls.perBankWrBursts::5                12                       # Per bank write bursts
system.mem_ctrls.perBankWrBursts::6                82                       # Per bank write bursts
system.mem_ctrls.perBankWrBursts::7                99                       # Per bank write bursts
system.mem_ctrls.perBankWrBursts::8                 1                       # Per bank write bursts
system.mem_ctrls.perBankWrBursts::9                 0                       # Per bank write bursts
system.mem_ctrls.perBankWrBursts::10                0                       # Per bank write bursts
system.mem_ctrls.perBankWrBursts::11                0                       # Per bank write bursts
system.mem_ctrls.perBankWrBursts::12               79                       # Per bank write bursts
system.mem_ctrls.perBankWrBursts::13                0                       # Per bank write bursts
system.mem_ctrls.perBankWrBursts::14                0                       # Per bank write bursts
system.mem_ctrls.perBankWrBursts::15                0                       # Per bank write bursts
system.mem_ctrls.numRdRetry                         0                       # Number of times read queue was full causing retry
system.mem_ctrls.numWrRetry                         0                       # Number of times write queue was full causing retry
system.mem_ctrls.totGap                   15267384500                       # Total gap between requests
system.mem_ctrls.readPktSize::0                     0                       # Read request sizes (log2)
system.mem_ctrls.readPktSize::1                     0                       # Read request sizes (log2)
system.mem_ctrls.readPktSize::2                     0                       # Read request sizes (log2)
system.mem_ctrls.readPktSize::3                     0                       # Read request sizes (log2)
system.mem_ctrls.readPktSize::4                     0                       # Read request sizes (log2)
system.mem_ctrls.readPktSize::5                     0                       # Read request sizes (log2)
system.mem_ctrls.readPktSize::6                187752                       # Read request sizes (log2)
system.mem_ctrls.writePktSize::0                    0                       # Write request sizes (log2)
system.mem_ctrls.writePktSize::1                    0                       # Write request sizes (log2)
system.mem_ctrls.writePktSize::2                    0                       # Write request sizes (log2)
system.mem_ctrls.writePktSize::3                    0                       # Write request sizes (log2)
system.mem_ctrls.writePktSize::4                    0                       # Write request sizes (log2)
system.mem_ctrls.writePktSize::5                    0                       # Write request sizes (log2)
system.mem_ctrls.writePktSize::6                  299                       # Write request sizes (log2)
system.mem_ctrls.rdQLenPdf::0                  143621                       # What read queue length does an incoming req see
system.mem_ctrls.rdQLenPdf::1                   41411                       # What read queue length does an incoming req see
system.mem_ctrls.rdQLenPdf::2                    2607                       # What read queue length does an incoming req see
system.mem_ctrls.rdQLenPdf::3                      66                       # What read queue length does an incoming req see
system.mem_ctrls.rdQLenPdf::4                       0                       # What read queue length does an incoming req see
system.mem_ctrls.rdQLenPdf::5                       0                       # What read queue length does an incoming req see
system.mem_ctrls.rdQLenPdf::6                       0                       # What read queue length does an incoming req see
system.mem_ctrls.rdQLenPdf::7                       0                       # What read queue length does an incoming req see
system.mem_ctrls.rdQLenPdf::8                       0                       # What read queue length does an incoming req see
system.mem_ctrls.rdQLenPdf::9                       0                       # What read queue length does an incoming req see
system.mem_ctrls.rdQLenPdf::10                      0                       # What read queue length does an incoming req see
system.mem_ctrls.rdQLenPdf::11                      0                       # What read queue length does an incoming req see
system.mem_ctrls.rdQLenPdf::12                      0                       # What read queue length does an incoming req see
system.mem_ctrls.rdQLenPdf::13                      0                       # What read queue length does an incoming req see
system.mem_ctrls.rdQLenPdf::14                      0                       # What read queue length does an incoming req see
system.mem_ctrls.rdQLenPdf::15                      0                       # What read queue length does an incoming req see
system.mem_ctrls.rdQLenPdf::16                      0                       # What read queue length does an incoming req see
system.mem_ctrls.rdQLenPdf::17                      0                       # What read queue length does an incoming req see
system.mem_ctrls.rdQLenPdf::18                      0                       # What read queue length does an incoming req see
system.mem_ctrls.rdQLenPdf::19                      0                       # What read queue length does an incoming req see
system.mem_ctrls.rdQLenPdf::20                      0                       # What read queue length does an incoming req see
system.mem_ctrls.rdQLenPdf::21                      0                       # What read queue length does an incoming req see
system.mem_ctrls.rdQLenPdf::22                      0                       # What read queue length does an incoming req see
system.mem_ctrls.rdQLenPdf::23                      0                       # What read queue length does an incoming req see
system.mem_ctrls.rdQLenPdf::24                      0                       # What read queue length does an incoming req see
system.mem_ctrls.rdQLenPdf::25                      0                       # What read queue length does an incoming req see
system.mem_ctrls.rdQLenPdf::26                      0                       # What read queue length does an incoming req see
system.mem_ctrls.rdQLenPdf::27                      0                       # What read queue length does an incoming req see
system.mem_ctrls.rdQLenPdf::28                      0                       # What read queue length does an incoming req see
system.mem_ctrls.rdQLenPdf::29                      0                       # What read queue length does an incoming req see
system.mem_ctrls.rdQLenPdf::30                      0                       # What read queue length does an incoming req see
system.mem_ctrls.rdQLenPdf::31                      0                       # What read queue length does an incoming req see
system.mem_ctrls.wrQLenPdf::0                       0                       # What write queue length does an incoming req see
system.mem_ctrls.wrQLenPdf::1                       0                       # What write queue length does an incoming req see
system.mem_ctrls.wrQLenPdf::2                       0                       # What write queue length does an incoming req see
system.mem_ctrls.wrQLenPdf::3                       0                       # What write queue length does an incoming req see
system.mem_ctrls.wrQLenPdf::4                       0                       # What write queue length does an incoming req see
system.mem_ctrls.wrQLenPdf::5                       0                       # What write queue length does an incoming req see
system.mem_ctrls.wrQLenPdf::6                       0                       # What write queue length does an incoming req see
system.mem_ctrls.wrQLenPdf::7                       0                       # What write queue length does an incoming req see
system.mem_ctrls.wrQLenPdf::8                       0                       # What write queue length does an incoming req see
system.mem_ctrls.wrQLenPdf::9                       0                       # What write queue length does an incoming req see
system.mem_ctrls.wrQLenPdf::10                      0                       # What write queue length does an incoming req see
system.mem_ctrls.wrQLenPdf::11                      0                       # What write queue length does an incoming req see
system.mem_ctrls.wrQLenPdf::12                      0                       # What write queue length does an incoming req see
system.mem_ctrls.wrQLenPdf::13                      0                       # What write queue length does an incoming req see
system.mem_ctrls.wrQLenPdf::14                      0                       # What write queue length does an incoming req see
system.mem_ctrls.wrQLenPdf::15                      1                       # What write queue length does an incoming req see
system.mem_ctrls.wrQLenPdf::16                      1                       # What write queue length does an incoming req see
system.mem_ctrls.wrQLenPdf::17                     18                       # What write queue length does an incoming req see
system.mem_ctrls.wrQLenPdf::18                     19                       # What write queue length does an incoming req see
system.mem_ctrls.wrQLenPdf::19                     19                       # What write queue length does an incoming req see
system.mem_ctrls.wrQLenPdf::20                     19                       # What write queue length does an incoming req see
system.mem_ctrls.wrQLenPdf::21                     19                       # What write queue length does an incoming req see
system.mem_ctrls.wrQLenPdf::22                     19                       # What write queue length does an incoming req see
system.mem_ctrls.wrQLenPdf::23                     19                       # What write queue length does an incoming req see
system.mem_ctrls.wrQLenPdf::24                     19                       # What write queue length does an incoming req see
system.mem_ctrls.wrQLenPdf::25                     19                       # What write queue length does an incoming req see
system.mem_ctrls.wrQLenPdf::26                     19                       # What write queue length does an incoming req see
system.mem_ctrls.wrQLenPdf::27                     18                       # What write queue length does an incoming req see
system.mem_ctrls.wrQLenPdf::28                     18                       # What write queue length does an incoming req see
system.mem_ctrls.wrQLenPdf::29                     18                       # What write queue length does an incoming req see
system.mem_ctrls.wrQLenPdf::30                     18                       # What write queue length does an incoming req see
system.mem_ctrls.wrQLenPdf::31                     18                       # What write queue length does an incoming req see
system.mem_ctrls.wrQLenPdf::32                     18                       # What write queue length does an incoming req see
system.mem_ctrls.wrQLenPdf::33                      0                       # What write queue length does an incoming req see
system.mem_ctrls.wrQLenPdf::34                      0                       # What write queue length does an incoming req see
system.mem_ctrls.wrQLenPdf::35                      0                       # What write queue length does an incoming req see
system.mem_ctrls.wrQLenPdf::36                      0                       # What write queue length does an incoming req see
system.mem_ctrls.wrQLenPdf::37                      0                       # What write queue length does an incoming req see
system.mem_ctrls.wrQLenPdf::38                      0                       # What write queue length does an incoming req see
system.mem_ctrls.wrQLenPdf::39                      0                       # What write queue length does an incoming req see
system.mem_ctrls.wrQLenPdf::40                      0                       # What write queue length does an incoming req see
system.mem_ctrls.wrQLenPdf::41                      0                       # What write queue length does an incoming req see
system.mem_ctrls.wrQLenPdf::42                      0                       # What write queue length does an incoming req see
system.mem_ctrls.wrQLenPdf::43                      0                       # What write queue length does an incoming req see
system.mem_ctrls.wrQLenPdf::44                      0                       # What write queue length does an incoming req see
system.mem_ctrls.wrQLenPdf::45                      0                       # What write queue length does an incoming req see
system.mem_ctrls.wrQLenPdf::46                      0                       # What write queue length does an incoming req see
system.mem_ctrls.wrQLenPdf::47                      0                       # What write queue length does an incoming req see
system.mem_ctrls.wrQLenPdf::48                      0                       # What write queue length does an incoming req see
system.mem_ctrls.wrQLenPdf::49                      0                       # What write queue length does an incoming req see
system.mem_ctrls.wrQLenPdf::50                      0                       # What write queue length does an incoming req see
system.mem_ctrls.wrQLenPdf::51                      0                       # What write queue length does an incoming req see
system.mem_ctrls.wrQLenPdf::52                      0                       # What write queue length does an incoming req see
system.mem_ctrls.wrQLenPdf::53                      0                       # What write queue length does an incoming req see
system.mem_ctrls.wrQLenPdf::54                      0                       # What write queue length does an incoming req see
system.mem_ctrls.wrQLenPdf::55                      0                       # What write queue length does an incoming req see
system.mem_ctrls.wrQLenPdf::56                      0                       # What write queue length does an incoming req see
system.mem_ctrls.wrQLenPdf::57                      0                       # What write queue length does an incoming req see
system.mem_ctrls.wrQLenPdf::58                      0                       # What write queue length does an incoming req see
system.mem_ctrls.wrQLenPdf::59                      0                       # What write queue length does an incoming req see
system.mem_ctrls.wrQLenPdf::60                      0                       # What write queue length does an incoming req see
system.mem_ctrls.wrQLenPdf::61                      0                       # What write queue length does an incoming req see
system.mem_ctrls.wrQLenPdf::62                      0                       # What write queue length does an incoming req see
system.mem_ctrls.wrQLenPdf::63                      0                       # What write queue length does an incoming req see
system.mem_ctrls.bytesPerActivate::samples        96908                       # Bytes accessed per row activation
system.mem_ctrls.bytesPerActivate::mean    124.143806                       # Bytes accessed per row activation
system.mem_ctrls.bytesPerActivate::gmean   107.048589                       # Bytes accessed per row activation
system.mem_ctrls.bytesPerActivate::stdev    73.925953                       # Bytes accessed per row activation
system.mem_ctrls.bytesPerActivate::0-127        44272     45.68%     45.68% # Bytes accessed per row activation
system.mem_ctrls.bytesPerActivate::128-255        42942     44.31%     90.00% # Bytes accessed per row activation
system.mem_ctrls.bytesPerActivate::256-383         8526      8.80%     98.79% # Bytes accessed per row activation
system.mem_ctrls.bytesPerActivate::384-511         1050      1.08%     99.88% # Bytes accessed per row activation
system.mem_ctrls.bytesPerActivate::512-639           90      0.09%     99.97% # Bytes accessed per row activation
system.mem_ctrls.bytesPerActivate::640-767           16      0.02%     99.99% # Bytes accessed per row activation
system.mem_ctrls.bytesPerActivate::768-895            3      0.00%     99.99% # Bytes accessed per row activation
system.mem_ctrls.bytesPerActivate::896-1023            2      0.00%     99.99% # Bytes accessed per row activation
system.mem_ctrls.bytesPerActivate::1024-1151            7      0.01%    100.00% # Bytes accessed per row activation
system.mem_ctrls.bytesPerActivate::total        96908                       # Bytes accessed per row activation
system.mem_ctrls.rdPerTurnAround::samples           18                       # Reads before turning the bus around for writes
system.mem_ctrls.rdPerTurnAround::mean   10225.444444                       # Reads before turning the bus around for writes
system.mem_ctrls.rdPerTurnAround::gmean   9826.276147                       # Reads before turning the bus around for writes
system.mem_ctrls.rdPerTurnAround::stdev   2925.310425                       # Reads before turning the bus around for writes
system.mem_ctrls.rdPerTurnAround::4608-5119            1      5.56%      5.56% # Reads before turning the bus around for writes
system.mem_ctrls.rdPerTurnAround::6656-7167            1      5.56%     11.11% # Reads before turning the bus around for writes
system.mem_ctrls.rdPerTurnAround::7168-7679            1      5.56%     16.67% # Reads before turning the bus around for writes
system.mem_ctrls.rdPerTurnAround::7680-8191            2     11.11%     27.78% # Reads before turning the bus around for writes
system.mem_ctrls.rdPerTurnAround::8192-8703            1      5.56%     33.33% # Reads before turning the bus around for writes
system.mem_ctrls.rdPerTurnAround::8704-9215            1      5.56%     38.89% # Reads before turning the bus around for writes
system.mem_ctrls.rdPerTurnAround::9216-9727            2     11.11%     50.00% # Reads before turning the bus around for writes
system.mem_ctrls.rdPerTurnAround::9728-10239            2     11.11%     61.11% # Reads before turning the bus around for writes
system.mem_ctrls.rdPerTurnAround::10240-10751            1      5.56%     66.67% # Reads before turning the bus around for writes
system.mem_ctrls.rdPerTurnAround::11264-11775            1      5.56%     72.22% # Reads before turning the bus around for writes
system.mem_ctrls.rdPerTurnAround::11776-12287            2     11.11%     83.33% # Reads before turning the bus around for writes
system.mem_ctrls.rdPerTurnAround::14336-14847            1      5.56%     88.89% # Reads before turning the bus around for writes
system.mem_ctrls.rdPerTurnAround::14848-15359            1      5.56%     94.44% # Reads before turning the bus around for writes
system.mem_ctrls.rdPerTurnAround::15872-16383            1      5.56%    100.00% # Reads before turning the bus around for writes
system.mem_ctrls.rdPerTurnAround::total            18                       # Reads before turning the bus around for writes
system.mem_ctrls.wrPerTurnAround::samples           18                       # Writes before turning the bus around for reads
system.mem_ctrls.wrPerTurnAround::mean      16.111111                       # Writes before turning the bus around for reads
system.mem_ctrls.wrPerTurnAround::gmean     16.105039                       # Writes before turning the bus around for reads
system.mem_ctrls.wrPerTurnAround::stdev      0.471405                       # Writes before turning the bus around for reads
system.mem_ctrls.wrPerTurnAround::16               17     94.44%     94.44% # Writes before turning the bus around for reads
system.mem_ctrls.wrPerTurnAround::18                1      5.56%    100.00% # Writes before turning the bus around for reads
system.mem_ctrls.wrPerTurnAround::total            18                       # Writes before turning the bus around for reads
system.mem_ctrls.totQLat                   4638040750                       # Total ticks spent queuing
system.mem_ctrls.totMemAccLat              8157509500                       # Total ticks spent from burst creation until serviced by the DRAM
system.mem_ctrls.totBusLat                  938525000                       # Total ticks spent in databus transfers
system.mem_ctrls.avgQLat                     24709.20                       # Average queueing delay per DRAM burst
system.mem_ctrls.avgBusLat                    5000.00                       # Average bus latency per DRAM burst
system.mem_ctrls.avgMemAccLat                43459.20                       # Average memory access latency per DRAM burst
system.mem_ctrls.avgRdBW                       786.85                       # Average DRAM read bandwidth in MiByte/s
system.mem_ctrls.avgWrBW                         1.22                       # Average achieved write bandwidth in MiByte/s
system.mem_ctrls.avgRdBWSys                    787.05                       # Average system read bandwidth in MiByte/s
system.mem_ctrls.avgWrBWSys                      1.25                       # Average system write bandwidth in MiByte/s
system.mem_ctrls.peakBW                      12800.00                       # Theoretical peak bandwidth in MiByte/s
system.mem_ctrls.busUtil                         6.16                       # Data bus utilization in percentage
system.mem_ctrls.busUtilRead                     6.15                       # Data bus utilization in percentage for reads
system.mem_ctrls.busUtilWrite                    0.01                       # Data bus utilization in percentage for writes
system.mem_ctrls.avgRdQLen                       1.30                       # Average read queue length when enqueuing
system.mem_ctrls.avgWrQLen                      24.76                       # Average write queue length when enqueuing
system.mem_ctrls.readRowHits                    90826                       # Number of row buffer hits during reads
system.mem_ctrls.writeRowHits                     251                       # Number of row buffer hits during writes
system.mem_ctrls.readRowHitRate                 48.39                       # Row buffer hit rate for reads
system.mem_ctrls.writeRowHitRate                83.95                       # Row buffer hit rate for writes
system.mem_ctrls.avgGap                      81187.47                       # Average gap between requests
system.mem_ctrls.pageHitRate                    48.44                       # Row buffer hit rate, read and write combined
system.mem_ctrls_0.actEnergy                347703720                       # Energy for activate commands per rank (pJ)
system.mem_ctrls_0.preEnergy                184801320                       # Energy for precharge commands per rank (pJ)
system.mem_ctrls_0.readEnergy               671909700                       # Energy for read commands per rank (pJ)
system.mem_ctrls_0.writeEnergy                1096200                       # Energy for write commands per rank (pJ)
system.mem_ctrls_0.refreshEnergy         1205309040.000000                       # Energy for refresh commands per rank (pJ)
system.mem_ctrls_0.actBackEnergy           1603587270                       # Energy for active background per rank (pJ)
system.mem_ctrls_0.preBackEnergy             24658080                       # Energy for precharge background per rank (pJ)
system.mem_ctrls_0.actPowerDownEnergy      5176877370                       # Energy for active power-down per rank (pJ)
system.mem_ctrls_0.prePowerDownEnergy       126676320                       # Energy for precharge power-down per rank (pJ)
system.mem_ctrls_0.selfRefreshEnergy          1465440                       # Energy for self refresh per rank (pJ)
system.mem_ctrls_0.totalEnergy             9344084460                       # Total energy per rank (pJ)
system.mem_ctrls_0.averagePower            612.030775                       # Core power per rank (mW)
system.mem_ctrls_0.totalIdleTime          11686437000                       # Total Idle time Per DRAM Rank
system.mem_ctrls_0.memoryStateTime::IDLE      9930000                       # Time in different power states
system.mem_ctrls_0.memoryStateTime::REF     509866000                       # Time in different power states
system.mem_ctrls_0.memoryStateTime::SREF      3804500                       # Time in different power states
system.mem_ctrls_0.memoryStateTime::PRE_PDN    329814000                       # Time in different power states
system.mem_ctrls_0.memoryStateTime::ACT    3060839500                       # Time in different power states
system.mem_ctrls_0.memoryStateTime::ACT_PDN  11353090125                       # Time in different power states
system.mem_ctrls_1.actEnergy                344290800                       # Energy for activate commands per rank (pJ)
system.mem_ctrls_1.preEnergy                182964540                       # Energy for precharge commands per rank (pJ)
system.mem_ctrls_1.readEnergy               668304000                       # Energy for read commands per rank (pJ)
system.mem_ctrls_1.writeEnergy                 417600                       # Energy for write commands per rank (pJ)
system.mem_ctrls_1.refreshEnergy         1205309040.000000                       # Energy for refresh commands per rank (pJ)
system.mem_ctrls_1.actBackEnergy           1593842550                       # Energy for active background per rank (pJ)
system.mem_ctrls_1.preBackEnergy             24442560                       # Energy for precharge background per rank (pJ)
system.mem_ctrls_1.actPowerDownEnergy      5221813320                       # Energy for active power-down per rank (pJ)
system.mem_ctrls_1.prePowerDownEnergy        95364480                       # Energy for precharge power-down per rank (pJ)
system.mem_ctrls_1.selfRefreshEnergy          2648340                       # Energy for self refresh per rank (pJ)
system.mem_ctrls_1.totalEnergy             9339397230                       # Total energy per rank (pJ)
system.mem_ctrls_1.averagePower            611.723765                       # Core power per rank (mW)
system.mem_ctrls_1.totalIdleTime          11708629500                       # Total Idle time Per DRAM Rank
system.mem_ctrls_1.memoryStateTime::IDLE      9474000                       # Time in different power states
system.mem_ctrls_1.memoryStateTime::REF     509866000                       # Time in different power states
system.mem_ctrls_1.memoryStateTime::SREF      8733750                       # Time in different power states
system.mem_ctrls_1.memoryStateTime::PRE_PDN    248527000                       # Time in different power states
system.mem_ctrls_1.memoryStateTime::ACT    3039371500                       # Time in different power states
system.mem_ctrls_1.memoryStateTime::ACT_PDN  11451371875                       # Time in different power states
system.pwrStateResidencyTicks::UNDEFINED  15267344125                       # Cumulative time (in ticks) in various power states
system.cpu0.branchPred.lookups                1564809                       # Number of BP lookups
system.cpu0.branchPred.condPredicted          1564809                       # Number of conditional branches predicted
system.cpu0.branchPred.condIncorrect            64241                       # Number of conditional branches incorrect
system.cpu0.branchPred.BTBLookups             1221836                       # Number of BTB lookups
system.cpu0.branchPred.BTBHits                      0                       # Number of BTB hits
system.cpu0.branchPred.BTBCorrect                   0                       # Number of correct BTB predictions (this stat may not work properly.
system.cpu0.branchPred.BTBHitPct             0.000000                       # BTB Hit Percentage
system.cpu0.branchPred.usedRAS                  41980                       # Number of times the RAS was used to get a target.
system.cpu0.branchPred.RASInCorrect              7072                       # Number of incorrect RAS predictions.
system.cpu0.branchPred.indirectLookups        1221836                       # Number of indirect predictor lookups.
system.cpu0.branchPred.indirectHits            672531                       # Number of indirect target hits.
system.cpu0.branchPred.indirectMisses          549305                       # Number of indirect misses.
system.cpu0.branchPredindirectMispredicted        18486                       # Number of mispredicted indirect branches.
system.cpu_voltage_domain.voltage                   1                       # Voltage in Volts
system.cpu_clk_domain.clock                       500                       # Clock period in ticks
system.cpu0.dtb.walker.pwrStateResidencyTicks::UNDEFINED  15267344125                       # Cumulative time (in ticks) in various power states
system.cpu0.dtb.rdAccesses                     761368                       # TLB accesses on read requests
system.cpu0.dtb.wrAccesses                      46745                       # TLB accesses on write requests
system.cpu0.dtb.rdMisses                       162983                       # TLB misses on read requests
system.cpu0.dtb.wrMisses                          752                       # TLB misses on write requests
system.cpu0.apic_clk_domain.clock                8000                       # Clock period in ticks
system.cpu0.interrupts.pwrStateResidencyTicks::UNDEFINED  15267344125                       # Cumulative time (in ticks) in various power states
system.cpu0.itb.walker.pwrStateResidencyTicks::UNDEFINED  15267344125                       # Cumulative time (in ticks) in various power states
system.cpu0.itb.rdAccesses                          0                       # TLB accesses on read requests
system.cpu0.itb.wrAccesses                    1307638                       # TLB accesses on write requests
system.cpu0.itb.rdMisses                            0                       # TLB misses on read requests
system.cpu0.itb.wrMisses                         7249                       # TLB misses on write requests
system.cpu0.workload.numSyscalls                    0                       # Number of system calls
system.cpu0.pwrStateResidencyTicks::ON    15267344125                       # Cumulative time (in ticks) in various power states
system.cpu0.numCycles                        30534688                       # number of cpu cycles simulated
system.cpu0.numWorkItemsStarted                     0                       # number of work items this cpu started
system.cpu0.numWorkItemsCompleted                   0                       # number of work items this cpu completed
system.cpu0.fetch.icacheStallCycles           1333723                       # Number of cycles fetch is stalled on an Icache miss
system.cpu0.fetch.Insts                       4540596                       # Number of instructions fetch has processed
system.cpu0.fetch.Branches                    1564809                       # Number of branches that fetch encountered
system.cpu0.fetch.predictedBranches            714511                       # Number of branches that fetch has predicted taken
system.cpu0.fetch.Cycles                     28973431                       # Number of cycles fetch has run and was not squashing or blocked
system.cpu0.fetch.SquashCycles                 133472                       # Number of cycles fetch has spent squashing
system.cpu0.fetch.TlbCycles                      3952                       # Number of cycles fetch has spent waiting for tlb
system.cpu0.fetch.MiscStallCycles                1671                       # Number of cycles fetch has spent waiting on interrupts, or bad addresses, or out of MSHRs
system.cpu0.fetch.PendingTrapStallCycles        66953                       # Number of stall cycles due to pending traps
system.cpu0.fetch.CacheLines                  1300389                       # Number of cache lines fetched
system.cpu0.fetch.IcacheSquashes                 6525                       # Number of outstanding Icache misses that were squashed
system.cpu0.fetch.ItlbSquashes                     11                       # Number of outstanding ITLB misses that were squashed
system.cpu0.fetch.rateDist::samples          30446466                       # Number of instructions fetched each cycle (Total)
system.cpu0.fetch.rateDist::mean             0.300253                       # Number of instructions fetched each cycle (Total)
system.cpu0.fetch.rateDist::stdev            1.377515                       # Number of instructions fetched each cycle (Total)
system.cpu0.fetch.rateDist::underflows              0      0.00%      0.00% # Number of instructions fetched each cycle (Total)
system.cpu0.fetch.rateDist::0                28667953     94.16%     94.16% # Number of instructions fetched each cycle (Total)
system.cpu0.fetch.rateDist::1                   16921      0.06%     94.21% # Number of instructions fetched each cycle (Total)
system.cpu0.fetch.rateDist::2                  655139      2.15%     96.37% # Number of instructions fetched each cycle (Total)
system.cpu0.fetch.rateDist::3                   25605      0.08%     96.45% # Number of instructions fetched each cycle (Total)
system.cpu0.fetch.rateDist::4                  128195      0.42%     96.87% # Number of instructions fetched each cycle (Total)
system.cpu0.fetch.rateDist::5                   66852      0.22%     97.09% # Number of instructions fetched each cycle (Total)
system.cpu0.fetch.rateDist::6                   87018      0.29%     97.38% # Number of instructions fetched each cycle (Total)
system.cpu0.fetch.rateDist::7                   21777      0.07%     97.45% # Number of instructions fetched each cycle (Total)
system.cpu0.fetch.rateDist::8                  777006      2.55%    100.00% # Number of instructions fetched each cycle (Total)
system.cpu0.fetch.rateDist::overflows               0      0.00%    100.00% # Number of instructions fetched each cycle (Total)
system.cpu0.fetch.rateDist::min_value               0                       # Number of instructions fetched each cycle (Total)
system.cpu0.fetch.rateDist::max_value               8                       # Number of instructions fetched each cycle (Total)
system.cpu0.fetch.rateDist::total            30446466                       # Number of instructions fetched each cycle (Total)
system.cpu0.fetch.branchRate                 0.051247                       # Number of branch fetches per cycle
system.cpu0.fetch.rate                       0.148703                       # Number of inst fetches per cycle
system.cpu0.decode.IdleCycles                  657983                       # Number of cycles decode is idle
system.cpu0.decode.BlockedCycles             28571021                       # Number of cycles decode is blocked
system.cpu0.decode.RunCycles                   824547                       # Number of cycles decode is running
system.cpu0.decode.UnblockCycles               326179                       # Number of cycles decode is unblocking
system.cpu0.decode.SquashCycles                 66736                       # Number of cycles decode is squashing
system.cpu0.decode.DecodedInsts               7512966                       # Number of instructions handled by decode
system.cpu0.rename.SquashCycles                 66736                       # Number of cycles rename is squashing
system.cpu0.rename.IdleCycles                  756645                       # Number of cycles rename is idle
system.cpu0.rename.BlockCycles               27229197                       # Number of cycles rename is blocking
system.cpu0.rename.serializeStallCycles          7200                       # count of cycles rename stalled for serializing inst
system.cpu0.rename.RunCycles                   973109                       # Number of cycles rename is running
system.cpu0.rename.UnblockCycles              1413579                       # Number of cycles rename is unblocking
system.cpu0.rename.RenamedInsts               7217471                       # Number of instructions processed by rename
system.cpu0.rename.ROBFullEvents                97542                       # Number of times rename has blocked due to ROB full
system.cpu0.rename.IQFullEvents               1103244                       # Number of times rename has blocked due to IQ full
system.cpu0.rename.LQFullEvents                257140                       # Number of times rename has blocked due to LQ full
system.cpu0.rename.SQFullEvents                   465                       # Number of times rename has blocked due to SQ full
system.cpu0.rename.RenamedOperands            8616027                       # Number of destination operands rename has renamed
system.cpu0.rename.RenameLookups             20111517                       # Number of register rename lookups that rename has made
system.cpu0.rename.int_rename_lookups         9435163                       # Number of integer rename lookups
system.cpu0.rename.fp_rename_lookups            30893                       # Number of floating rename lookups
system.cpu0.rename.CommittedMaps              3153738                       # Number of HB maps that are committed
system.cpu0.rename.UndoneMaps                 5462286                       # Number of HB maps that are undone due to squashing
system.cpu0.rename.serializingInsts               228                       # count of serializing insts renamed
system.cpu0.rename.tempSerializingInsts           269                       # count of temporary serializing insts renamed
system.cpu0.rename.skidInsts                  2104980                       # count of insts added to the skid buffer
system.cpu0.memDep0.insertedLoads             1311360                       # Number of loads inserted to the mem dependence unit.
system.cpu0.memDep0.insertedStores              70133                       # Number of stores inserted to the mem dependence unit.
system.cpu0.memDep0.conflictingLoads             3825                       # Number of conflicting loads.
system.cpu0.memDep0.conflictingStores            4741                       # Number of conflicting stores.
system.cpu0.iq.iqInstsAdded                   6887841                       # Number of instructions added to the IQ (excludes non-spec)
system.cpu0.iq.iqNonSpecInstsAdded               4565                       # Number of non-speculative instructions added to the IQ
system.cpu0.iq.iqInstsIssued                  4979981                       # Number of instructions issued
system.cpu0.iq.iqSquashedInstsIssued             6199                       # Number of squashed instructions issued
system.cpu0.iq.iqSquashedInstsExamined        4264124                       # Number of squashed instructions iterated over during squash; mainly for profiling
system.cpu0.iq.iqSquashedOperandsExamined      8799195                       # Number of squashed operands that are examined and possibly removed from graph
system.cpu0.iq.iqSquashedNonSpecRemoved          4565                       # Number of squashed non-spec instructions that were removed
system.cpu0.iq.issued_per_cycle::samples     30446466                       # Number of insts issued each cycle
system.cpu0.iq.issued_per_cycle::mean        0.163565                       # Number of insts issued each cycle
system.cpu0.iq.issued_per_cycle::stdev       0.727220                       # Number of insts issued each cycle
system.cpu0.iq.issued_per_cycle::underflows            0      0.00%      0.00% # Number of insts issued each cycle
system.cpu0.iq.issued_per_cycle::0           28345987     93.10%     93.10% # Number of insts issued each cycle
system.cpu0.iq.issued_per_cycle::1             858520      2.82%     95.92% # Number of insts issued each cycle
system.cpu0.iq.issued_per_cycle::2             452219      1.49%     97.41% # Number of insts issued each cycle
system.cpu0.iq.issued_per_cycle::3             304079      1.00%     98.40% # Number of insts issued each cycle
system.cpu0.iq.issued_per_cycle::4             290786      0.96%     99.36% # Number of insts issued each cycle
system.cpu0.iq.issued_per_cycle::5              84391      0.28%     99.64% # Number of insts issued each cycle
system.cpu0.iq.issued_per_cycle::6              70726      0.23%     99.87% # Number of insts issued each cycle
system.cpu0.iq.issued_per_cycle::7              22733      0.07%     99.94% # Number of insts issued each cycle
system.cpu0.iq.issued_per_cycle::8              17025      0.06%    100.00% # Number of insts issued each cycle
system.cpu0.iq.issued_per_cycle::overflows            0      0.00%    100.00% # Number of insts issued each cycle
system.cpu0.iq.issued_per_cycle::min_value            0                       # Number of insts issued each cycle
system.cpu0.iq.issued_per_cycle::max_value            8                       # Number of insts issued each cycle
system.cpu0.iq.issued_per_cycle::total       30446466                       # Number of insts issued each cycle
system.cpu0.iq.fu_full::No_OpClass                  0      0.00%      0.00% # attempts to use FU when none available
system.cpu0.iq.fu_full::IntAlu                   9324     62.99%     62.99% # attempts to use FU when none available
system.cpu0.iq.fu_full::IntMult                     0      0.00%     62.99% # attempts to use FU when none available
system.cpu0.iq.fu_full::IntDiv                      0      0.00%     62.99% # attempts to use FU when none available
system.cpu0.iq.fu_full::FloatAdd                  891      6.02%     69.01% # attempts to use FU when none available
system.cpu0.iq.fu_full::FloatCmp                    0      0.00%     69.01% # attempts to use FU when none available
system.cpu0.iq.fu_full::FloatCvt                    0      0.00%     69.01% # attempts to use FU when none available
system.cpu0.iq.fu_full::FloatMult                   0      0.00%     69.01% # attempts to use FU when none available
system.cpu0.iq.fu_full::FloatMultAcc                0      0.00%     69.01% # attempts to use FU when none available
system.cpu0.iq.fu_full::FloatDiv                    0      0.00%     69.01% # attempts to use FU when none available
system.cpu0.iq.fu_full::FloatMisc                   0      0.00%     69.01% # attempts to use FU when none available
system.cpu0.iq.fu_full::FloatSqrt                   0      0.00%     69.01% # attempts to use FU when none available
system.cpu0.iq.fu_full::SimdAdd                     0      0.00%     69.01% # attempts to use FU when none available
system.cpu0.iq.fu_full::SimdAddAcc                  0      0.00%     69.01% # attempts to use FU when none available
system.cpu0.iq.fu_full::SimdAlu                     0      0.00%     69.01% # attempts to use FU when none available
system.cpu0.iq.fu_full::SimdCmp                     0      0.00%     69.01% # attempts to use FU when none available
system.cpu0.iq.fu_full::SimdCvt                     0      0.00%     69.01% # attempts to use FU when none available
system.cpu0.iq.fu_full::SimdMisc                    0      0.00%     69.01% # attempts to use FU when none available
system.cpu0.iq.fu_full::SimdMult                    0      0.00%     69.01% # attempts to use FU when none available
system.cpu0.iq.fu_full::SimdMultAcc                 0      0.00%     69.01% # attempts to use FU when none available
system.cpu0.iq.fu_full::SimdShift                   0      0.00%     69.01% # attempts to use FU when none available
system.cpu0.iq.fu_full::SimdShiftAcc                0      0.00%     69.01% # attempts to use FU when none available
system.cpu0.iq.fu_full::SimdSqrt                    0      0.00%     69.01% # attempts to use FU when none available
system.cpu0.iq.fu_full::SimdFloatAdd                0      0.00%     69.01% # attempts to use FU when none available
system.cpu0.iq.fu_full::SimdFloatAlu                0      0.00%     69.01% # attempts to use FU when none available
system.cpu0.iq.fu_full::SimdFloatCmp                0      0.00%     69.01% # attempts to use FU when none available
system.cpu0.iq.fu_full::SimdFloatCvt                0      0.00%     69.01% # attempts to use FU when none available
system.cpu0.iq.fu_full::SimdFloatDiv                0      0.00%     69.01% # attempts to use FU when none available
system.cpu0.iq.fu_full::SimdFloatMisc               0      0.00%     69.01% # attempts to use FU when none available
system.cpu0.iq.fu_full::SimdFloatMult               0      0.00%     69.01% # attempts to use FU when none available
system.cpu0.iq.fu_full::SimdFloatMultAcc            0      0.00%     69.01% # attempts to use FU when none available
system.cpu0.iq.fu_full::SimdFloatSqrt               0      0.00%     69.01% # attempts to use FU when none available
system.cpu0.iq.fu_full::MemRead                  4239     28.64%     97.64% # attempts to use FU when none available
system.cpu0.iq.fu_full::MemWrite                  199      1.34%     98.99% # attempts to use FU when none available
system.cpu0.iq.fu_full::FloatMemRead              106      0.72%     99.70% # attempts to use FU when none available
system.cpu0.iq.fu_full::FloatMemWrite              44      0.30%    100.00% # attempts to use FU when none available
system.cpu0.iq.fu_full::IprAccess                   0      0.00%    100.00% # attempts to use FU when none available
system.cpu0.iq.fu_full::InstPrefetch                0      0.00%    100.00% # attempts to use FU when none available
system.cpu0.iq.FU_type_0::No_OpClass            16859      0.34%      0.34% # Type of FU issued
system.cpu0.iq.FU_type_0::IntAlu              4097148     82.27%     82.61% # Type of FU issued
system.cpu0.iq.FU_type_0::IntMult                1317      0.03%     82.64% # Type of FU issued
system.cpu0.iq.FU_type_0::IntDiv                 7750      0.16%     82.79% # Type of FU issued
system.cpu0.iq.FU_type_0::FloatAdd              11208      0.23%     83.02% # Type of FU issued
system.cpu0.iq.FU_type_0::FloatCmp                  0      0.00%     83.02% # Type of FU issued
system.cpu0.iq.FU_type_0::FloatCvt                  0      0.00%     83.02% # Type of FU issued
system.cpu0.iq.FU_type_0::FloatMult                 0      0.00%     83.02% # Type of FU issued
system.cpu0.iq.FU_type_0::FloatMultAcc              0      0.00%     83.02% # Type of FU issued
system.cpu0.iq.FU_type_0::FloatDiv                  0      0.00%     83.02% # Type of FU issued
system.cpu0.iq.FU_type_0::FloatMisc                 0      0.00%     83.02% # Type of FU issued
system.cpu0.iq.FU_type_0::FloatSqrt                 0      0.00%     83.02% # Type of FU issued
system.cpu0.iq.FU_type_0::SimdAdd                   0      0.00%     83.02% # Type of FU issued
system.cpu0.iq.FU_type_0::SimdAddAcc                0      0.00%     83.02% # Type of FU issued
system.cpu0.iq.FU_type_0::SimdAlu                   0      0.00%     83.02% # Type of FU issued
system.cpu0.iq.FU_type_0::SimdCmp                   0      0.00%     83.02% # Type of FU issued
system.cpu0.iq.FU_type_0::SimdCvt                   0      0.00%     83.02% # Type of FU issued
system.cpu0.iq.FU_type_0::SimdMisc                  0      0.00%     83.02% # Type of FU issued
system.cpu0.iq.FU_type_0::SimdMult                  0      0.00%     83.02% # Type of FU issued
system.cpu0.iq.FU_type_0::SimdMultAcc               0      0.00%     83.02% # Type of FU issued
system.cpu0.iq.FU_type_0::SimdShift                 0      0.00%     83.02% # Type of FU issued
system.cpu0.iq.FU_type_0::SimdShiftAcc              0      0.00%     83.02% # Type of FU issued
system.cpu0.iq.FU_type_0::SimdSqrt                  0      0.00%     83.02% # Type of FU issued
system.cpu0.iq.FU_type_0::SimdFloatAdd              0      0.00%     83.02% # Type of FU issued
system.cpu0.iq.FU_type_0::SimdFloatAlu              0      0.00%     83.02% # Type of FU issued
system.cpu0.iq.FU_type_0::SimdFloatCmp              0      0.00%     83.02% # Type of FU issued
system.cpu0.iq.FU_type_0::SimdFloatCvt              0      0.00%     83.02% # Type of FU issued
system.cpu0.iq.FU_type_0::SimdFloatDiv              0      0.00%     83.02% # Type of FU issued
system.cpu0.iq.FU_type_0::SimdFloatMisc             0      0.00%     83.02% # Type of FU issued
system.cpu0.iq.FU_type_0::SimdFloatMult             0      0.00%     83.02% # Type of FU issued
system.cpu0.iq.FU_type_0::SimdFloatMultAcc            0      0.00%     83.02% # Type of FU issued
system.cpu0.iq.FU_type_0::SimdFloatSqrt             0      0.00%     83.02% # Type of FU issued
system.cpu0.iq.FU_type_0::MemRead              793091     15.93%     98.94% # Type of FU issued
system.cpu0.iq.FU_type_0::MemWrite              50359      1.01%     99.95% # Type of FU issued
system.cpu0.iq.FU_type_0::FloatMemRead           2083      0.04%    100.00% # Type of FU issued
system.cpu0.iq.FU_type_0::FloatMemWrite           166      0.00%    100.00% # Type of FU issued
system.cpu0.iq.FU_type_0::IprAccess                 0      0.00%    100.00% # Type of FU issued
system.cpu0.iq.FU_type_0::InstPrefetch              0      0.00%    100.00% # Type of FU issued
system.cpu0.iq.FU_type_0::total               4979981                       # Type of FU issued
system.cpu0.iq.rate                          0.163093                       # Inst issue rate
system.cpu0.iq.fu_busy_cnt                      14803                       # FU busy when requested
system.cpu0.iq.fu_busy_rate                  0.002973                       # FU busy rate (busy events/executed inst)
system.cpu0.iq.int_inst_queue_reads          40399271                       # Number of integer instruction queue reads
system.cpu0.iq.int_inst_queue_writes         11129691                       # Number of integer instruction queue writes
system.cpu0.iq.int_inst_queue_wakeup_accesses      4788653                       # Number of integer instruction queue wakeup accesses
system.cpu0.iq.fp_inst_queue_reads              28159                       # Number of floating instruction queue reads
system.cpu0.iq.fp_inst_queue_writes             26844                       # Number of floating instruction queue writes
system.cpu0.iq.fp_inst_queue_wakeup_accesses        12315                       # Number of floating instruction queue wakeup accesses
system.cpu0.iq.vec_inst_queue_reads                 0                       # Number of vector instruction queue reads
system.cpu0.iq.vec_inst_queue_writes                0                       # Number of vector instruction queue writes
system.cpu0.iq.vec_inst_queue_wakeup_accesses            0                       # Number of vector instruction queue wakeup accesses
system.cpu0.iq.int_alu_accesses               4963409                       # Number of integer alu accesses
system.cpu0.iq.fp_alu_accesses                  14516                       # Number of floating point alu accesses
system.cpu0.iq.vec_alu_accesses                     0                       # Number of vector alu accesses
system.cpu0.iew.lsq.thread0.forwLoads            3454                       # Number of loads that had data forwarded from stores
system.cpu0.iew.lsq.thread0.invAddrLoads            0                       # Number of loads ignored due to an invalid address
system.cpu0.iew.lsq.thread0.squashedLoads       807271                       # Number of loads squashed
system.cpu0.iew.lsq.thread0.ignoredResponses          134                       # Number of memory responses ignored because the instruction is squashed
system.cpu0.iew.lsq.thread0.memOrderViolation            5                       # Number of memory ordering violations
system.cpu0.iew.lsq.thread0.squashedStores        48200                       # Number of stores squashed
system.cpu0.iew.lsq.thread0.invAddrSwpfs            0                       # Number of software prefetches ignored due to an invalid address
system.cpu0.iew.lsq.thread0.blockedLoads            0                       # Number of blocked loads due to partial load-store forwarding
system.cpu0.iew.lsq.thread0.rescheduledLoads           25                       # Number of loads that were rescheduled
system.cpu0.iew.lsq.thread0.cacheBlocked         1757                       # Number of times an access to memory failed due to the cache being blocked
system.cpu0.iew.iewIdleCycles                       0                       # Number of cycles IEW is idle
system.cpu0.iew.iewSquashCycles                 66736                       # Number of cycles IEW is squashing
system.cpu0.iew.iewBlockCycles               25154100                       # Number of cycles IEW is blocking
system.cpu0.iew.iewUnblockCycles               285915                       # Number of cycles IEW is unblocking
system.cpu0.iew.iewDispatchedInsts            6892406                       # Number of instructions dispatched to IQ
system.cpu0.iew.iewDispSquashedInsts             4994                       # Number of squashed instructions skipped by dispatch
system.cpu0.iew.iewDispLoadInsts              1311360                       # Number of dispatched load instructions
system.cpu0.iew.iewDispStoreInsts               70133                       # Number of dispatched store instructions
system.cpu0.iew.iewDispNonSpecInsts              1658                       # Number of dispatched non-speculative instructions
system.cpu0.iew.iewIQFullEvents                 18344                       # Number of times the IQ has become full, causing a stall
system.cpu0.iew.iewLSQFullEvents                68665                       # Number of times the LSQ has become full, causing a stall
system.cpu0.iew.memOrderViolationEvents             5                       # Number of memory order violations
system.cpu0.iew.predictedTakenIncorrect         36468                       # Number of branches that were predicted taken incorrectly
system.cpu0.iew.predictedNotTakenIncorrect        36950                       # Number of branches that were predicted not taken incorrectly
system.cpu0.iew.branchMispredicts               73418                       # Number of branch mispredicts detected at execute
system.cpu0.iew.iewExecutedInsts              4897775                       # Number of executed instructions
system.cpu0.iew.iewExecLoadInsts               761144                       # Number of load instructions executed
system.cpu0.iew.iewExecSquashedInsts            82206                       # Number of squashed instructions skipped in execute
system.cpu0.iew.exec_swp                            0                       # number of swp insts executed
system.cpu0.iew.exec_nop                            0                       # number of nop insts executed
system.cpu0.iew.exec_refs                      807875                       # number of memory reference insts executed
system.cpu0.iew.exec_branches                  602192                       # Number of branches executed
system.cpu0.iew.exec_stores                     46731                       # Number of stores executed
system.cpu0.iew.exec_rate                    0.160400                       # Inst execution rate
system.cpu0.iew.wb_sent                       4816225                       # cumulative count of insts sent to commit
system.cpu0.iew.wb_count                      4800968                       # cumulative count of insts written-back
system.cpu0.iew.wb_producers                  3500762                       # num instructions producing a value
system.cpu0.iew.wb_consumers                  5586259                       # num instructions consuming a value
system.cpu0.iew.wb_rate                      0.157230                       # insts written-back per cycle
system.cpu0.iew.wb_fanout                    0.626674                       # average fanout of values written-back
system.cpu0.commit.commitSquashedInsts        4264695                       # The number of squashed insts skipped by commit
system.cpu0.commit.branchMispredicts            66732                       # The number of times a branch was mispredicted
system.cpu0.commit.committed_per_cycle::samples     29843322                       # Number of insts commited each cycle
system.cpu0.commit.committed_per_cycle::mean     0.088069                       # Number of insts commited each cycle
system.cpu0.commit.committed_per_cycle::stdev     0.537046                       # Number of insts commited each cycle
system.cpu0.commit.committed_per_cycle::underflows            0      0.00%      0.00% # Number of insts commited each cycle
system.cpu0.commit.committed_per_cycle::0     28676578     96.09%     96.09% # Number of insts commited each cycle
system.cpu0.commit.committed_per_cycle::1       543398      1.82%     97.91% # Number of insts commited each cycle
system.cpu0.commit.committed_per_cycle::2       130413      0.44%     98.35% # Number of insts commited each cycle
system.cpu0.commit.committed_per_cycle::3       356389      1.19%     99.54% # Number of insts commited each cycle
system.cpu0.commit.committed_per_cycle::4        57692      0.19%     99.74% # Number of insts commited each cycle
system.cpu0.commit.committed_per_cycle::5        31285      0.10%     99.84% # Number of insts commited each cycle
system.cpu0.commit.committed_per_cycle::6         4699      0.02%     99.86% # Number of insts commited each cycle
system.cpu0.commit.committed_per_cycle::7         3442      0.01%     99.87% # Number of insts commited each cycle
system.cpu0.commit.committed_per_cycle::8        39426      0.13%    100.00% # Number of insts commited each cycle
system.cpu0.commit.committed_per_cycle::overflows            0      0.00%    100.00% # Number of insts commited each cycle
system.cpu0.commit.committed_per_cycle::min_value            0                       # Number of insts commited each cycle
system.cpu0.commit.committed_per_cycle::max_value            8                       # Number of insts commited each cycle
system.cpu0.commit.committed_per_cycle::total     29843322                       # Number of insts commited each cycle
system.cpu0.commit.committedInsts             1315868                       # Number of instructions committed
system.cpu0.commit.committedOps               2628280                       # Number of ops (including micro ops) committed
system.cpu0.commit.swp_count                        0                       # Number of s/w prefetches committed
system.cpu0.commit.refs                        526021                       # Number of memory references committed
system.cpu0.commit.loads                       504088                       # Number of loads committed
system.cpu0.commit.membars                          0                       # Number of memory barriers committed
system.cpu0.commit.branches                    480733                       # Number of branches committed
system.cpu0.commit.vec_insts                        0                       # Number of committed Vector instructions.
system.cpu0.commit.fp_insts                      8824                       # Number of committed floating point instructions.
system.cpu0.commit.int_insts                  2619336                       # Number of committed integer instructions.
system.cpu0.commit.function_calls                3875                       # Number of function calls committed.
system.cpu0.commit.op_class_0::No_OpClass         2696      0.10%      0.10% # Class of committed instruction
system.cpu0.commit.op_class_0::IntAlu         2085273     79.34%     79.44% # Class of committed instruction
system.cpu0.commit.op_class_0::IntMult            155      0.01%     79.45% # Class of committed instruction
system.cpu0.commit.op_class_0::IntDiv            6599      0.25%     79.70% # Class of committed instruction
system.cpu0.commit.op_class_0::FloatAdd          7536      0.29%     79.99% # Class of committed instruction
system.cpu0.commit.op_class_0::FloatCmp             0      0.00%     79.99% # Class of committed instruction
system.cpu0.commit.op_class_0::FloatCvt             0      0.00%     79.99% # Class of committed instruction
system.cpu0.commit.op_class_0::FloatMult            0      0.00%     79.99% # Class of committed instruction
system.cpu0.commit.op_class_0::FloatMultAcc            0      0.00%     79.99% # Class of committed instruction
system.cpu0.commit.op_class_0::FloatDiv             0      0.00%     79.99% # Class of committed instruction
system.cpu0.commit.op_class_0::FloatMisc            0      0.00%     79.99% # Class of committed instruction
system.cpu0.commit.op_class_0::FloatSqrt            0      0.00%     79.99% # Class of committed instruction
system.cpu0.commit.op_class_0::SimdAdd              0      0.00%     79.99% # Class of committed instruction
system.cpu0.commit.op_class_0::SimdAddAcc            0      0.00%     79.99% # Class of committed instruction
system.cpu0.commit.op_class_0::SimdAlu              0      0.00%     79.99% # Class of committed instruction
system.cpu0.commit.op_class_0::SimdCmp              0      0.00%     79.99% # Class of committed instruction
system.cpu0.commit.op_class_0::SimdCvt              0      0.00%     79.99% # Class of committed instruction
system.cpu0.commit.op_class_0::SimdMisc             0      0.00%     79.99% # Class of committed instruction
system.cpu0.commit.op_class_0::SimdMult             0      0.00%     79.99% # Class of committed instruction
system.cpu0.commit.op_class_0::SimdMultAcc            0      0.00%     79.99% # Class of committed instruction
system.cpu0.commit.op_class_0::SimdShift            0      0.00%     79.99% # Class of committed instruction
system.cpu0.commit.op_class_0::SimdShiftAcc            0      0.00%     79.99% # Class of committed instruction
system.cpu0.commit.op_class_0::SimdSqrt             0      0.00%     79.99% # Class of committed instruction
system.cpu0.commit.op_class_0::SimdFloatAdd            0      0.00%     79.99% # Class of committed instruction
system.cpu0.commit.op_class_0::SimdFloatAlu            0      0.00%     79.99% # Class of committed instruction
system.cpu0.commit.op_class_0::SimdFloatCmp            0      0.00%     79.99% # Class of committed instruction
system.cpu0.commit.op_class_0::SimdFloatCvt            0      0.00%     79.99% # Class of committed instruction
system.cpu0.commit.op_class_0::SimdFloatDiv            0      0.00%     79.99% # Class of committed instruction
system.cpu0.commit.op_class_0::SimdFloatMisc            0      0.00%     79.99% # Class of committed instruction
system.cpu0.commit.op_class_0::SimdFloatMult            0      0.00%     79.99% # Class of committed instruction
system.cpu0.commit.op_class_0::SimdFloatMultAcc            0      0.00%     79.99% # Class of committed instruction
system.cpu0.commit.op_class_0::SimdFloatSqrt            0      0.00%     79.99% # Class of committed instruction
system.cpu0.commit.op_class_0::MemRead         502800     19.13%     99.12% # Class of committed instruction
system.cpu0.commit.op_class_0::MemWrite         21933      0.83%     99.95% # Class of committed instruction
system.cpu0.commit.op_class_0::FloatMemRead         1288      0.05%    100.00% # Class of committed instruction
system.cpu0.commit.op_class_0::FloatMemWrite            0      0.00%    100.00% # Class of committed instruction
system.cpu0.commit.op_class_0::IprAccess            0      0.00%    100.00% # Class of committed instruction
system.cpu0.commit.op_class_0::InstPrefetch            0      0.00%    100.00% # Class of committed instruction
system.cpu0.commit.op_class_0::total          2628280                       # Class of committed instruction
system.cpu0.commit.bw_lim_events                39426                       # number cycles where commit BW limit reached
system.cpu0.rob.rob_reads                    36696871                       # The number of ROB reads
system.cpu0.rob.rob_writes                   14390427                       # The number of ROB writes
system.cpu0.timesIdled                            720                       # Number of times that the entire CPU went into an idle state and unscheduled itself
system.cpu0.idleCycles                          88222                       # Total number of cycles that the CPU has spent unscheduled due to idling
system.cpu0.committedInsts                    1315868                       # Number of Instructions Simulated
system.cpu0.committedOps                      2628280                       # Number of Ops (including micro ops) Simulated
system.cpu0.cpi                             23.204978                       # CPI: Cycles Per Instruction
system.cpu0.cpi_total                       23.204978                       # CPI: Total CPI of All Threads
system.cpu0.ipc                              0.043094                       # IPC: Instructions Per Cycle
system.cpu0.ipc_total                        0.043094                       # IPC: Total IPC of All Threads
system.cpu0.int_regfile_reads                 4912623                       # number of integer regfile reads
system.cpu0.int_regfile_writes                4156653                       # number of integer regfile writes
system.cpu0.fp_regfile_reads                    21949                       # number of floating regfile reads
system.cpu0.fp_regfile_writes                   10924                       # number of floating regfile writes
system.cpu0.cc_regfile_reads                  3176543                       # number of cc regfile reads
system.cpu0.cc_regfile_writes                 1352006                       # number of cc regfile writes
system.cpu0.misc_regfile_reads                2598371                       # number of misc regfile reads
system.cpu0.dcache.tags.pwrStateResidencyTicks::UNDEFINED  15267344125                       # Cumulative time (in ticks) in various power states
system.cpu0.dcache.tags.replacements           270287                       # number of replacements
system.cpu0.dcache.tags.tagsinuse                1024                       # Cycle average of tags in use
system.cpu0.dcache.tags.total_refs             303162                       # Total number of references to valid blocks.
system.cpu0.dcache.tags.sampled_refs           270287                       # Sample count of references to valid blocks.
system.cpu0.dcache.tags.avg_refs             1.121630                       # Average number of references to valid blocks.
system.cpu0.dcache.tags.warmup_cycle                0                       # Cycle when the warmup percentage was hit.
system.cpu0.dcache.tags.occ_blocks::cpu0.data         1024                       # Average occupied blocks per requestor
system.cpu0.dcache.tags.occ_percent::cpu0.data            1                       # Average percentage of cache occupancy
system.cpu0.dcache.tags.occ_percent::total            1                       # Average percentage of cache occupancy
system.cpu0.dcache.tags.occ_task_id_blocks::1024         1024                       # Occupied blocks per task id
system.cpu0.dcache.tags.age_task_id_blocks_1024::0          136                       # Occupied blocks per task id
system.cpu0.dcache.tags.age_task_id_blocks_1024::1          822                       # Occupied blocks per task id
system.cpu0.dcache.tags.age_task_id_blocks_1024::2           66                       # Occupied blocks per task id
system.cpu0.dcache.tags.occ_task_id_percent::1024            1                       # Percentage of cache occupancy per task id
system.cpu0.dcache.tags.tag_accesses          3373551                       # Number of tag accesses
system.cpu0.dcache.tags.data_accesses         3373551                       # Number of data accesses
system.cpu0.dcache.pwrStateResidencyTicks::UNDEFINED  15267344125                       # Cumulative time (in ticks) in various power states
system.cpu0.dcache.ReadReq_hits::cpu0.data       281686                       # number of ReadReq hits
system.cpu0.dcache.ReadReq_hits::total         281686                       # number of ReadReq hits
system.cpu0.dcache.WriteReq_hits::cpu0.data        21026                       # number of WriteReq hits
system.cpu0.dcache.WriteReq_hits::total         21026                       # number of WriteReq hits
system.cpu0.dcache.demand_hits::cpu0.data       302712                       # number of demand (read+write) hits
system.cpu0.dcache.demand_hits::total          302712                       # number of demand (read+write) hits
system.cpu0.dcache.overall_hits::cpu0.data       302712                       # number of overall hits
system.cpu0.dcache.overall_hits::total         302712                       # number of overall hits
system.cpu0.dcache.ReadReq_misses::cpu0.data       472197                       # number of ReadReq misses
system.cpu0.dcache.ReadReq_misses::total       472197                       # number of ReadReq misses
system.cpu0.dcache.WriteReq_misses::cpu0.data          907                       # number of WriteReq misses
system.cpu0.dcache.WriteReq_misses::total          907                       # number of WriteReq misses
system.cpu0.dcache.demand_misses::cpu0.data       473104                       # number of demand (read+write) misses
system.cpu0.dcache.demand_misses::total        473104                       # number of demand (read+write) misses
system.cpu0.dcache.overall_misses::cpu0.data       473104                       # number of overall misses
system.cpu0.dcache.overall_misses::total       473104                       # number of overall misses
system.cpu0.dcache.ReadReq_miss_latency::cpu0.data  34127728000                       # number of ReadReq miss cycles
system.cpu0.dcache.ReadReq_miss_latency::total  34127728000                       # number of ReadReq miss cycles
system.cpu0.dcache.WriteReq_miss_latency::cpu0.data     31101498                       # number of WriteReq miss cycles
system.cpu0.dcache.WriteReq_miss_latency::total     31101498                       # number of WriteReq miss cycles
system.cpu0.dcache.demand_miss_latency::cpu0.data  34158829498                       # number of demand (read+write) miss cycles
system.cpu0.dcache.demand_miss_latency::total  34158829498                       # number of demand (read+write) miss cycles
system.cpu0.dcache.overall_miss_latency::cpu0.data  34158829498                       # number of overall miss cycles
system.cpu0.dcache.overall_miss_latency::total  34158829498                       # number of overall miss cycles
system.cpu0.dcache.ReadReq_accesses::cpu0.data       753883                       # number of ReadReq accesses(hits+misses)
system.cpu0.dcache.ReadReq_accesses::total       753883                       # number of ReadReq accesses(hits+misses)
system.cpu0.dcache.WriteReq_accesses::cpu0.data        21933                       # number of WriteReq accesses(hits+misses)
system.cpu0.dcache.WriteReq_accesses::total        21933                       # number of WriteReq accesses(hits+misses)
system.cpu0.dcache.demand_accesses::cpu0.data       775816                       # number of demand (read+write) accesses
system.cpu0.dcache.demand_accesses::total       775816                       # number of demand (read+write) accesses
system.cpu0.dcache.overall_accesses::cpu0.data       775816                       # number of overall (read+write) accesses
system.cpu0.dcache.overall_accesses::total       775816                       # number of overall (read+write) accesses
system.cpu0.dcache.ReadReq_miss_rate::cpu0.data     0.626353                       # miss rate for ReadReq accesses
system.cpu0.dcache.ReadReq_miss_rate::total     0.626353                       # miss rate for ReadReq accesses
system.cpu0.dcache.WriteReq_miss_rate::cpu0.data     0.041353                       # miss rate for WriteReq accesses
system.cpu0.dcache.WriteReq_miss_rate::total     0.041353                       # miss rate for WriteReq accesses
system.cpu0.dcache.demand_miss_rate::cpu0.data     0.609815                       # miss rate for demand accesses
system.cpu0.dcache.demand_miss_rate::total     0.609815                       # miss rate for demand accesses
system.cpu0.dcache.overall_miss_rate::cpu0.data     0.609815                       # miss rate for overall accesses
system.cpu0.dcache.overall_miss_rate::total     0.609815                       # miss rate for overall accesses
system.cpu0.dcache.ReadReq_avg_miss_latency::cpu0.data 72274.343124                       # average ReadReq miss latency
system.cpu0.dcache.ReadReq_avg_miss_latency::total 72274.343124                       # average ReadReq miss latency
system.cpu0.dcache.WriteReq_avg_miss_latency::cpu0.data 34290.515987                       # average WriteReq miss latency
[...]
system.l2.ReadSharedReq_hits::cpu0.data         81847                       # number of ReadSharedReq hits
system.l2.ReadSharedReq_hits::total             81847                       # number of ReadSharedReq hits
system.l2.demand_hits::cpu0.data                82535                       # number of demand (read+write) hits
system.l2.demand_hits::total                    82535                       # number of demand (read+write) hits
system.l2.overall_hits::cpu0.data               82535                       # number of overall hits
system.l2.overall_hits::total                   82535                       # number of overall hits
system.l2.ReadExReq_misses::cpu0.data             216                       # number of ReadExReq misses
system.l2.ReadExReq_misses::total                 216                       # number of ReadExReq misses
system.l2.ReadSharedReq_misses::cpu0.data       187536                       # number of ReadSharedReq misses
system.l2.ReadSharedReq_misses::total          187536                       # number of ReadSharedReq misses
system.l2.demand_misses::cpu0.data             187752                       # number of demand (read+write) misses
system.l2.demand_misses::total                 187752                       # number of demand (read+write) misses
system.l2.overall_misses::cpu0.data            187752                       # number of overall misses
system.l2.overall_misses::total                187752                       # number of overall misses
system.l2.ReadExReq_miss_latency::cpu0.data     21214000                       # number of ReadExReq miss cycles
system.l2.ReadExReq_miss_latency::total      21214000                       # number of ReadExReq miss cycles
system.l2.ReadSharedReq_miss_latency::cpu0.data  17824080000                       # number of ReadSharedReq miss cycles
system.l2.ReadSharedReq_miss_latency::total  17824080000                       # number of ReadSharedReq miss cycles
system.l2.demand_miss_latency::cpu0.data  17845294000                       # number of demand (read+write) miss cycles
system.l2.demand_miss_latency::total      17845294000                       # number of demand (read+write) miss cycles
system.l2.overall_miss_latency::cpu0.data  17845294000                       # number of overall miss cycles
system.l2.overall_miss_latency::total     17845294000                       # number of overall miss cycles
system.l2.WritebackDirty_accesses::writebacks         2477                       # number of WritebackDirty accesses(hits+misses)
system.l2.WritebackDirty_accesses::total         2477                       # number of WritebackDirty accesses(hits+misses)
system.l2.ReadExReq_accesses::cpu0.data           904                       # number of ReadExReq accesses(hits+misses)
system.l2.ReadExReq_accesses::total               904                       # number of ReadExReq accesses(hits+misses)
system.l2.ReadSharedReq_accesses::cpu0.data       269383                       # number of ReadSharedReq accesses(hits+misses)
system.l2.ReadSharedReq_accesses::total        269383                       # number of ReadSharedReq accesses(hits+misses)
system.l2.demand_accesses::cpu0.data           270287                       # number of demand (read+write) accesses
system.l2.demand_accesses::total               270287                       # number of demand (read+write) accesses
system.l2.overall_accesses::cpu0.data          270287                       # number of overall (read+write) accesses
system.l2.overall_accesses::total              270287                       # number of overall (read+write) accesses
system.l2.ReadExReq_miss_rate::cpu0.data     0.238938                       # miss rate for ReadExReq accesses
system.l2.ReadExReq_miss_rate::total         0.238938                       # miss rate for ReadExReq accesses
system.l2.ReadSharedReq_miss_rate::cpu0.data     0.696169                       # miss rate for ReadSharedReq accesses
system.l2.ReadSharedReq_miss_rate::total     0.696169                       # miss rate for ReadSharedReq accesses
system.l2.demand_miss_rate::cpu0.data        0.694639                       # miss rate for demand accesses
system.l2.demand_miss_rate::total            0.694639                       # miss rate for demand accesses
system.l2.overall_miss_rate::cpu0.data       0.694639                       # miss rate for overall accesses
system.l2.overall_miss_rate::total           0.694639                       # miss rate for overall accesses
system.l2.ReadExReq_avg_miss_latency::cpu0.data 98212.962963                       # average ReadExReq miss latency
system.l2.ReadExReq_avg_miss_latency::total 98212.962963                       # average ReadExReq miss latency
system.l2.ReadSharedReq_avg_miss_latency::cpu0.data 95043.511646                       # average ReadSharedReq miss latency
system.l2.ReadSharedReq_avg_miss_latency::total 95043.511646                       # average ReadSharedReq miss latency
system.l2.demand_avg_miss_latency::cpu0.data 95047.157953                       # average overall miss latency
system.l2.demand_avg_miss_latency::total 95047.157953                       # average overall miss latency
system.l2.overall_avg_miss_latency::cpu0.data 95047.157953                       # average overall miss latency
system.l2.overall_avg_miss_latency::total 95047.157953                       # average overall miss latency
system.l2.blocked_cycles::no_mshrs                  0                       # number of cycles access was blocked
system.l2.blocked_cycles::no_targets                0                       # number of cycles access was blocked
system.l2.blocked::no_mshrs                         0                       # number of cycles access was blocked
system.l2.blocked::no_targets                       0                       # number of cycles access was blocked
system.l2.avg_blocked_cycles::no_mshrs            nan                       # average number of cycles each access was blocked
system.l2.avg_blocked_cycles::no_targets          nan                       # average number of cycles each access was blocked
system.l2.writebacks::writebacks                  299                       # number of writebacks
system.l2.writebacks::total                       299                       # number of writebacks
system.l2.ReadExReq_mshr_misses::cpu0.data          216                       # number of ReadExReq MSHR misses
system.l2.ReadExReq_mshr_misses::total            216                       # number of ReadExReq MSHR misses
system.l2.ReadSharedReq_mshr_misses::cpu0.data       187536                       # number of ReadSharedReq MSHR misses
system.l2.ReadSharedReq_mshr_misses::total       187536                       # number of ReadSharedReq MSHR misses
system.l2.demand_mshr_misses::cpu0.data        187752                       # number of demand (read+write) MSHR misses
system.l2.demand_mshr_misses::total            187752                       # number of demand (read+write) MSHR misses
system.l2.overall_mshr_misses::cpu0.data       187752                       # number of overall MSHR misses
system.l2.overall_mshr_misses::total           187752                       # number of overall MSHR misses
system.l2.ReadExReq_mshr_miss_latency::cpu0.data     19054000                       # number of ReadExReq MSHR miss cycles
system.l2.ReadExReq_mshr_miss_latency::total     19054000                       # number of ReadExReq MSHR miss cycles
system.l2.ReadSharedReq_mshr_miss_latency::cpu0.data  15948720000                       # number of ReadSharedReq MSHR miss cycles
system.l2.ReadSharedReq_mshr_miss_latency::total  15948720000                       # number of ReadSharedReq MSHR miss cycles
system.l2.demand_mshr_miss_latency::cpu0.data  15967774000                       # number of demand (read+write) MSHR miss cycles
system.l2.demand_mshr_miss_latency::total  15967774000                       # number of demand (read+write) MSHR miss cycles
system.l2.overall_mshr_miss_latency::cpu0.data  15967774000                       # number of overall MSHR miss cycles
system.l2.overall_mshr_miss_latency::total  15967774000                       # number of overall MSHR miss cycles
system.l2.ReadExReq_mshr_miss_rate::cpu0.data     0.238938                       # mshr miss rate for ReadExReq accesses
system.l2.ReadExReq_mshr_miss_rate::total     0.238938                       # mshr miss rate for ReadExReq accesses
system.l2.ReadSharedReq_mshr_miss_rate::cpu0.data     0.696169                       # mshr miss rate for ReadSharedReq accesses
system.l2.ReadSharedReq_mshr_miss_rate::total     0.696169                       # mshr miss rate for ReadSharedReq accesses
system.l2.demand_mshr_miss_rate::cpu0.data     0.694639                       # mshr miss rate for demand accesses
system.l2.demand_mshr_miss_rate::total       0.694639                       # mshr miss rate for demand accesses
system.l2.overall_mshr_miss_rate::cpu0.data     0.694639                       # mshr miss rate for overall accesses
system.l2.overall_mshr_miss_rate::total      0.694639                       # mshr miss rate for overall accesses
system.l2.ReadExReq_avg_mshr_miss_latency::cpu0.data 88212.962963                       # average ReadExReq mshr miss latency
system.l2.ReadExReq_avg_mshr_miss_latency::total 88212.962963                       # average ReadExReq mshr miss latency
system.l2.ReadSharedReq_avg_mshr_miss_latency::cpu0.data 85043.511646                       # average ReadSharedReq mshr miss latency
system.l2.ReadSharedReq_avg_mshr_miss_latency::total 85043.511646                       # average ReadSharedReq mshr miss latency
system.l2.demand_avg_mshr_miss_latency::cpu0.data 85047.157953                       # average overall mshr miss latency
system.l2.demand_avg_mshr_miss_latency::total 85047.157953                       # average overall mshr miss latency
system.l2.overall_avg_mshr_miss_latency::cpu0.data 85047.157953                       # average overall mshr miss latency
system.l2.overall_avg_mshr_miss_latency::total 85047.157953                       # average overall mshr miss latency
system.membus.snoop_filter.tot_requests        375502                       # Total number of requests made to the snoop filter.
system.membus.snoop_filter.hit_single_requests       187752                       # Number of requests hitting in the snoop filter with a single holder of the requested data.
system.membus.snoop_filter.hit_multi_requests            0                       # Number of requests hitting in the snoop filter with multiple (>1) holders of the requested data.
system.membus.snoop_filter.tot_snoops               0                       # Total number of snoops made to the snoop filter.
system.membus.snoop_filter.hit_single_snoops            0                       # Number of snoops hitting in the snoop filter with a single holder of the requested data.
system.membus.snoop_filter.hit_multi_snoops            0                       # Number of snoops hitting in the snoop filter with multiple (>1) holders of the requested data.
system.membus.pwrStateResidencyTicks::UNDEFINED  15267344125                       # Cumulative time (in ticks) in various power states
system.membus.trans_dist::ReadResp             187535                       # Transaction distribution
system.membus.trans_dist::WritebackDirty          299                       # Transaction distribution
system.membus.trans_dist::CleanEvict           187451                       # Transaction distribution
system.membus.trans_dist::ReadExReq               216                       # Transaction distribution
system.membus.trans_dist::ReadExResp              216                       # Transaction distribution
system.membus.trans_dist::ReadSharedReq        187536                       # Transaction distribution
system.membus.pkt_count_system.l2.mem_side::system.mem_ctrls.port       563253                       # Packet count per connected master and slave (bytes)
system.membus.pkt_count_system.l2.mem_side::total       563253                       # Packet count per connected master and slave (bytes)
system.membus.pkt_count::total                 563253                       # Packet count per connected master and slave (bytes)
system.membus.pkt_size_system.l2.mem_side::system.mem_ctrls.port     12035200                       # Cumulative packet size per connected master and slave (bytes)
system.membus.pkt_size_system.l2.mem_side::total     12035200                       # Cumulative packet size per connected master and slave (bytes)
system.membus.pkt_size::total                12035200                       # Cumulative packet size per connected master and slave (bytes)
system.membus.snoops                                0                       # Total snoops (count)
system.membus.snoopTraffic                          0                       # Total snoop traffic (bytes)
system.membus.snoop_fanout::samples            187752                       # Request fanout histogram
system.membus.snoop_fanout::mean                    0                       # Request fanout histogram
system.membus.snoop_fanout::stdev                   0                       # Request fanout histogram
system.membus.snoop_fanout::underflows              0      0.00%      0.00% # Request fanout histogram
system.membus.snoop_fanout::0                  187752    100.00%    100.00% # Request fanout histogram
system.membus.snoop_fanout::1                       0      0.00%    100.00% # Request fanout histogram
system.membus.snoop_fanout::overflows               0      0.00%    100.00% # Request fanout histogram
system.membus.snoop_fanout::min_value               0                       # Request fanout histogram
system.membus.snoop_fanout::max_value               0                       # Request fanout histogram
system.membus.snoop_fanout::total              187752                       # Request fanout histogram
system.membus.reqLayer8.occupancy           442022000                       # Layer occupancy (ticks)
system.membus.reqLayer8.utilization               2.9                       # Layer utilization (%)
system.membus.respLayer1.occupancy         1016544500                       # Layer occupancy (ticks)
system.membus.respLayer1.utilization              6.7                       # Layer utilization (%)
system.tol2bus.snoop_filter.tot_requests       540574                       # Total number of requests made to the snoop filter.
system.tol2bus.snoop_filter.hit_single_requests       270285                       # Number of requests hitting in the snoop filter with a single holder of the requested data.
system.tol2bus.snoop_filter.hit_multi_requests          368                       # Number of requests hitting in the snoop filter with multiple (>1) holders of the requested data.
system.tol2bus.snoop_filter.tot_snoops              2                       # Total number of snoops made to the snoop filter.
system.tol2bus.snoop_filter.hit_single_snoops            2                       # Number of snoops hitting in the snoop filter with a single holder of the requested data.
system.tol2bus.snoop_filter.hit_multi_snoops            0                       # Number of snoops hitting in the snoop filter with multiple (>1) holders of the requested data.
system.tol2bus.pwrStateResidencyTicks::UNDEFINED  15267344125                       # Cumulative time (in ticks) in various power states
system.tol2bus.trans_dist::ReadResp            269383                       # Transaction distribution
system.tol2bus.trans_dist::WritebackDirty         2776                       # Transaction distribution
system.tol2bus.trans_dist::CleanEvict          455263                       # Transaction distribution
system.tol2bus.trans_dist::ReadExReq              904                       # Transaction distribution
system.tol2bus.trans_dist::ReadExResp             904                       # Transaction distribution
system.tol2bus.trans_dist::ReadSharedReq       269383                       # Transaction distribution
system.tol2bus.pkt_count_system.cpu0.dcache.mem_side::system.l2.cpu_side       810861                       # Packet count per connected master and slave (bytes)
system.tol2bus.pkt_count::total                810861                       # Packet count per connected master and slave (bytes)
system.tol2bus.pkt_size_system.cpu0.dcache.mem_side::system.l2.cpu_side     17456896                       # Cumulative packet size per connected master and slave (bytes)
system.tol2bus.pkt_size::total               17456896                       # Cumulative packet size per connected master and slave (bytes)
system.tol2bus.snoops                          187752                       # Total snoops (count)
system.tol2bus.snoopTraffic                     19136                       # Total snoop traffic (bytes)
system.tol2bus.snoop_fanout::samples           458039                       # Request fanout histogram
system.tol2bus.snoop_fanout::mean            0.000803                       # Request fanout histogram
system.tol2bus.snoop_fanout::stdev           0.028333                       # Request fanout histogram
system.tol2bus.snoop_fanout::underflows             0      0.00%      0.00% # Request fanout histogram
system.tol2bus.snoop_fanout::0                 457671     99.92%     99.92% # Request fanout histogram
system.tol2bus.snoop_fanout::1                    368      0.08%    100.00% # Request fanout histogram
system.tol2bus.snoop_fanout::2                      0      0.00%    100.00% # Request fanout histogram
system.tol2bus.snoop_fanout::3                      0      0.00%    100.00% # Request fanout histogram
system.tol2bus.snoop_fanout::4                      0      0.00%    100.00% # Request fanout histogram
system.tol2bus.snoop_fanout::5                      0      0.00%    100.00% # Request fanout histogram
system.tol2bus.snoop_fanout::6                      0      0.00%    100.00% # Request fanout histogram
system.tol2bus.snoop_fanout::7                      0      0.00%    100.00% # Request fanout histogram
system.tol2bus.snoop_fanout::8                      0      0.00%    100.00% # Request fanout histogram
system.tol2bus.snoop_fanout::9                      0      0.00%    100.00% # Request fanout histogram
system.tol2bus.snoop_fanout::10                     0      0.00%    100.00% # Request fanout histogram
system.tol2bus.snoop_fanout::11                     0      0.00%    100.00% # Request fanout histogram
system.tol2bus.snoop_fanout::12                     0      0.00%    100.00% # Request fanout histogram
system.tol2bus.snoop_fanout::13                     0      0.00%    100.00% # Request fanout histogram
system.tol2bus.snoop_fanout::14                     0      0.00%    100.00% # Request fanout histogram
system.tol2bus.snoop_fanout::15                     0      0.00%    100.00% # Request fanout histogram
system.tol2bus.snoop_fanout::16                     0      0.00%    100.00% # Request fanout histogram
system.tol2bus.snoop_fanout::overflows              0      0.00%    100.00% # Request fanout histogram
system.tol2bus.snoop_fanout::min_value              0                       # Request fanout histogram
system.tol2bus.snoop_fanout::max_value              1                       # Request fanout histogram
system.tol2bus.snoop_fanout::total             458039                       # Request fanout histogram
system.tol2bus.reqLayer0.occupancy          272764000                       # Layer occupancy (ticks)
system.tol2bus.reqLayer0.utilization              1.8                       # Layer utilization (%)
system.tol2bus.respLayer1.occupancy         405430500                       # Layer occupancy (ticks)
system.tol2bus.respLayer1.utilization             2.7                       # Layer utilization (%)

---------- End Simulation Statistics   ----------
