
---------- Begin Simulation Statistics ----------
sim_seconds                                  0.015267                       # Number of seconds simulated
sim_ticks                                 15267344125                       # Number of ticks simulated
final_tick                               8000088321500                       # Number of ticks from beginning of simulation (restored from checkpoints and never reset)
sim_freq                                 1000000000000                       # Frequency of simulated ticks
host_inst_rate                               25856321                       # Simulator instruction rate (inst/s)
host_op_rate                                 48274683                       # Simulator op (including micro ops) rate (op/s)
host_tick_rate                               64243007                       # Simulator tick rate (ticks/s)
host_mem_usage                                2332656                       # Number of bytes of host memory used
host_seconds                                   237.65                       # Real time elapsed on the host
sim_insts                                  6144750994                       # Number of instructions simulated
sim_ops                                   11472472684                       # Number of ops (including micro ops) simulated
system.voltage_domain.voltage                       1                       # Voltage in Volts
system.clk_domain.clock                          1000                       # Clock period in ticks
system.mem_ctrls.pwrStateResidencyTicks::UNDEFINED  15267344125                       # Cumulative time (in ticks) in various power states
system.mem_ctrls.bytes_read::cpu0.inst          32000                       # Number of bytes read from this memory
system.mem_ctrls.bytes_read::cpu0.data        9635136                       # Number of bytes read from this memory
system.mem_ctrls.bytes_read::total            9667136                       # Number of bytes read from this memory
system.mem_ctrls.bytes_inst_read::cpu0.inst        32000                       # Number of instructions bytes read from this memory
system.mem_ctrls.bytes_inst_read::total         32000                       # Number of instructions bytes read from this memory
system.mem_ctrls.bytes_written::writebacks        84544                       # Number of bytes written to this memory
system.mem_ctrls.bytes_written::total           84544                       # Number of bytes written to this memory
system.mem_ctrls.num_reads::cpu0.inst             500                       # Number of read requests responded to by this memory
system.mem_ctrls.num_reads::cpu0.data          150549                       # Number of read requests responded to by this memory
system.mem_ctrls.num_reads::total              151049                       # Number of read requests responded to by this memory
system.mem_ctrls.num_writes::writebacks          1321                       # Number of write requests responded to by this memory
system.mem_ctrls.num_writes::total               1321                       # Number of write requests responded to by this memory
system.mem_ctrls.bw_read::cpu0.inst           2095977                       # Total read bandwidth from this memory (bytes/s)
system.mem_ctrls.bw_read::cpu0.data         631094441                       # Total read bandwidth from this memory (bytes/s)
system.mem_ctrls.bw_read::total             633190417                       # Total read bandwidth from this memory (bytes/s)
system.mem_ctrls.bw_inst_read::cpu0.inst      2095977                       # Instruction read bandwidth from this memory (bytes/s)
system.mem_ctrls.bw_inst_read::total          2095977                       # Instruction read bandwidth from this memory (bytes/s)
system.mem_ctrls.bw_write::writebacks         5537571                       # Write bandwidth from this memory (bytes/s)
system.mem_ctrls.bw_write::total              5537571                       # Write bandwidth from this memory (bytes/s)
system.mem_ctrls.bw_total::writebacks         5537571                       # Total bandwidth to/from this memory (bytes/s)
system.mem_ctrls.bw_total::cpu0.inst          2095977                       # Total bandwidth to/from this memory (bytes/s)
system.mem_ctrls.bw_total::cpu0.data        631094441                       # Total bandwidth to/from this memory (bytes/s)
system.mem_ctrls.bw_total::total            638727988                       # Total bandwidth to/from this memory (bytes/s)
system.mem_ctrls.readReqs                      151049                       # Number of read requests accepted
system.mem_ctrls.writeReqs                       1321                       # Number of write requests accepted
system.mem_ctrls.readBursts                    151049                       # Number of DRAM read bursts, including those serviced by the write queue
system.mem_ctrls.writeBursts                     1321                       # Number of DRAM write bursts, including those merged in the write queue
system.mem_ctrls.bytesReadDRAM                9666752                       # Total number of bytes read from DRAM
system.mem_ctrls.bytesReadWrQ                     384                       # Total number of bytes read from write queue
system.mem_ctrls.bytesWritten                   85184                       # Total number of bytes written to DRAM
system.mem_ctrls.bytesReadSys                 9667136                       # Total read bytes from the system interface side
system.mem_ctrls.bytesWrittenSys                84544                       # Total written bytes from the system interface side
system.mem_ctrls.servicedByWrQ                      6                       # Number of DRAM read bursts serviced by the write queue
system.mem_ctrls.mergedWrBursts                     0                       # Number of DRAM write bursts merged with an existing one
system.mem_ctrls.neitherReadNorWriteReqs            0                       # Number of requests that are neither read nor write
system.mem_ctrls.perBankRdBursts::0              9461                       # Per bank write bursts
system.mem_ctrls.perBankRdBursts::1              9544                       # Per bank write bursts
system.mem_ctrls.perBankRdBursts::2              9535                       # Per bank write bursts
system.mem_ctrls.perBankRdBursts::3              9449                       # Per bank write bursts
system.mem_ctrls.perBankRdBursts::4              9391                       # Per bank write bursts
system.mem_ctrls.perBankRdBursts::5              9340                       # Per bank write bursts
system.mem_ctrls.perBankRdBursts::6              9470                       # Per bank write bursts
system.mem_ctrls.perBankRdBursts::7              9499                       # Per bank write bursts
system.mem_ctrls.perBankRdBursts::8              9364                       # Per bank write bursts
system.mem_ctrls.perBankRdBursts::9              9426                       # Per bank write bursts
system.mem_ctrls.perBankRdBursts::10             9537                       # Per bank write bursts
system.mem_ctrls.perBankRdBursts::11             9390                       # Per bank write bursts
system.mem_ctrls.perBankRdBursts::12             9405                       # Per bank write bursts
system.mem_ctrls.perBankRdBursts::13             9453                       # Per bank write bursts
system.mem_ctrls.perBankRdBursts::14             9414                       # Per bank write bursts
system.mem_ctrls.perBankRdBursts::15             9365                       # Per bank write bursts
system.mem_ctrls.perBankWrBursts::0                 8                       # Per bank write bursts
system.mem_ctrls.perBankWrBursts::1                 1                       # Per bank write bursts
system.mem_ctrls.perBankWrBursts::2                 0                       # Per bank write bursts
system.mem_ctrls.perBankWrBursts::3                 0                       # Per bank write bursts
system.mem_ctrls.perBankWrBursts::4                 0                       # Per bank write bursts
system.mem_ctrls.perBankWrBursts::5               121                       # Per bank write bursts
system.mem_ctrls.perBankWrBursts::6               128                       # Per bank write bursts
system.mem_ctrls.perBankWrBursts::7               131                       # Per bank write bursts
system.mem_ctrls.perBankWrBursts::8               126                       # Per bank write bursts
system.mem_ctrls.perBankWrBursts::9               128                       # Per bank write bursts
system.mem_ctrls.perBankWrBursts::10              128                       # Per bank write bursts
system.mem_ctrls.perBankWrBursts::11              128                       # Per bank write bursts
system.mem_ctrls.perBankWrBursts::12              127                       # Per bank write bursts
system.mem_ctrls.perBankWrBursts::13              128                       # Per bank write bursts
system.mem_ctrls.perBankWrBursts::14              128                       # Per bank write bursts
system.mem_ctrls.perBankWrBursts::15               49                       # Per bank write bursts
system.mem_ctrls.numRdRetry                         0                       # Number of times read queue was full causing retry
system.mem_ctrls.numWrRetry                         0                       # Number of times write queue was full causing retry
system.mem_ctrls.totGap                   15067440000                       # Total gap between requests
system.mem_ctrls.readPktSize::0                     0                       # Read request sizes (log2)
system.mem_ctrls.readPktSize::1                     0                       # Read request sizes (log2)
system.mem_ctrls.readPktSize::2                     0                       # Read request sizes (log2)
system.mem_ctrls.readPktSize::3                     0                       # Read request sizes (log2)
system.mem_ctrls.readPktSize::4                     0                       # Read request sizes (log2)
system.mem_ctrls.readPktSize::5                     0                       # Read request sizes (log2)
system.mem_ctrls.readPktSize::6                151049                       # Read request sizes (log2)
system.mem_ctrls.writePktSize::0                    0                       # Write request sizes (log2)
system.mem_ctrls.writePktSize::1                    0                       # Write request sizes (log2)
system.mem_ctrls.writePktSize::2                    0                       # Write request sizes (log2)
system.mem_ctrls.writePktSize::3                    0                       # Write request sizes (log2)
system.mem_ctrls.writePktSize::4                    0                       # Write request sizes (log2)
system.mem_ctrls.writePktSize::5                    0                       # Write request sizes (log2)
system.mem_ctrls.writePktSize::6                 1321                       # Write request sizes (log2)
system.mem_ctrls.rdQLenPdf::0                  100577                       # What read queue length does an incoming req see
system.mem_ctrls.rdQLenPdf::1                   17418                       # What read queue length does an incoming req see
system.mem_ctrls.rdQLenPdf::2                   17007                       # What read queue length does an incoming req see
system.mem_ctrls.rdQLenPdf::3                   16038                       # What read queue length does an incoming req see
system.mem_ctrls.rdQLenPdf::4                       3                       # What read queue length does an incoming req see
system.mem_ctrls.rdQLenPdf::5                       0                       # What read queue length does an incoming req see
system.mem_ctrls.rdQLenPdf::6                       0                       # What read queue length does an incoming req see
system.mem_ctrls.rdQLenPdf::7                       0                       # What read queue length does an incoming req see
system.mem_ctrls.rdQLenPdf::8                       0                       # What read queue length does an incoming req see
system.mem_ctrls.rdQLenPdf::9                       0                       # What read queue length does an incoming req see
system.mem_ctrls.rdQLenPdf::10                      0                       # What read queue length does an incoming req see
system.mem_ctrls.rdQLenPdf::11                      0                       # What read queue length does an incoming req see
system.mem_ctrls.rdQLenPdf::12                      0                       # What read queue length does an incoming req see
system.mem_ctrls.rdQLenPdf::13                      0                       # What read queue length does an incoming req see
system.mem_ctrls.rdQLenPdf::14                      0                       # What read queue length does an incoming req see
system.mem_ctrls.rdQLenPdf::15                      0                       # What read queue length does an incoming req see
system.mem_ctrls.rdQLenPdf::16                      0                       # What read queue length does an incoming req see
system.mem_ctrls.rdQLenPdf::17                      0                       # What read queue length does an incoming req see
system.mem_ctrls.rdQLenPdf::18                      0                       # What read queue length does an incoming req see
system.mem_ctrls.rdQLenPdf::19                      0                       # What read queue length does an incoming req see
system.mem_ctrls.rdQLenPdf::20                      0                       # What read queue length does an incoming req see
system.mem_ctrls.rdQLenPdf::21                      0                       # What read queue length does an incoming req see
system.mem_ctrls.rdQLenPdf::22                      0                       # What read queue length does an incoming req see
system.mem_ctrls.rdQLenPdf::23                      0                       # What read queue length does an incoming req see
system.mem_ctrls.rdQLenPdf::24                      0                       # What read queue length does an incoming req see
system.mem_ctrls.rdQLenPdf::25                      0                       # What read queue length does an incoming req see
system.mem_ctrls.rdQLenPdf::26                      0                       # What read queue length does an incoming req see
system.mem_ctrls.rdQLenPdf::27                      0                       # What read queue length does an incoming req see
system.mem_ctrls.rdQLenPdf::28                      0                       # What read queue length does an incoming req see
system.mem_ctrls.rdQLenPdf::29                      0                       # What read queue length does an incoming req see
system.mem_ctrls.rdQLenPdf::30                      0                       # What read queue length does an incoming req see
system.mem_ctrls.rdQLenPdf::31                      0                       # What read queue length does an incoming req see
system.mem_ctrls.wrQLenPdf::0                       0                       # What write queue length does an incoming req see
system.mem_ctrls.wrQLenPdf::1                       0                       # What write queue length does an incoming req see
system.mem_ctrls.wrQLenPdf::2                       0                       # What write queue length does an incoming req see
system.mem_ctrls.wrQLenPdf::3                       0                       # What write queue length does an incoming req see
system.mem_ctrls.wrQLenPdf::4                       0                       # What write queue length does an incoming req see
system.mem_ctrls.wrQLenPdf::5                       0                       # What write queue length does an incoming req see
system.mem_ctrls.wrQLenPdf::6                       0                       # What write queue length does an incoming req see
system.mem_ctrls.wrQLenPdf::7                       0                       # What write queue length does an incoming req see
system.mem_ctrls.wrQLenPdf::8                       0                       # What write queue length does an incoming req see
system.mem_ctrls.wrQLenPdf::9                       0                       # What write queue length does an incoming req see
system.mem_ctrls.wrQLenPdf::10                      0                       # What write queue length does an incoming req see
system.mem_ctrls.wrQLenPdf::11                      0                       # What write queue length does an incoming req see
system.mem_ctrls.wrQLenPdf::12                      0                       # What write queue length does an incoming req see
system.mem_ctrls.wrQLenPdf::13                      0                       # What write queue length does an incoming req see
system.mem_ctrls.wrQLenPdf::14                      0                       # What write queue length does an incoming req see
system.mem_ctrls.wrQLenPdf::15                     64                       # What write queue length does an incoming req see
system.mem_ctrls.wrQLenPdf::16                     67                       # What write queue length does an incoming req see
system.mem_ctrls.wrQLenPdf::17                     75                       # What write queue length does an incoming req see
system.mem_ctrls.wrQLenPdf::18                     74                       # What write queue length does an incoming req see
system.mem_ctrls.wrQLenPdf::19                     74                       # What write queue length does an incoming req see
system.mem_ctrls.wrQLenPdf::20                     74                       # What write queue length does an incoming req see
system.mem_ctrls.wrQLenPdf::21                     74                       # What write queue length does an incoming req see
system.mem_ctrls.wrQLenPdf::22                     74                       # What write queue length does an incoming req see
system.mem_ctrls.wrQLenPdf::23                     74                       # What write queue length does an incoming req see
system.mem_ctrls.wrQLenPdf::24                     74                       # What write queue length does an incoming req see
system.mem_ctrls.wrQLenPdf::25                     74                       # What write queue length does an incoming req see
system.mem_ctrls.wrQLenPdf::26                     74                       # What write queue length does an incoming req see
system.mem_ctrls.wrQLenPdf::27                     74                       # What write queue length does an incoming req see
system.mem_ctrls.wrQLenPdf::28                     75                       # What write queue length does an incoming req see
system.mem_ctrls.wrQLenPdf::29                     75                       # What write queue length does an incoming req see
system.mem_ctrls.wrQLenPdf::30                     75                       # What write queue length does an incoming req see
system.mem_ctrls.wrQLenPdf::31                     75                       # What write queue length does an incoming req see
system.mem_ctrls.wrQLenPdf::32                     75                       # What write queue length does an incoming req see
system.mem_ctrls.wrQLenPdf::33                      0                       # What write queue length does an incoming req see
system.mem_ctrls.wrQLenPdf::34                      0                       # What write queue length does an incoming req see
system.mem_ctrls.wrQLenPdf::35                      0                       # What write queue length does an incoming req see
system.mem_ctrls.wrQLenPdf::36                      0                       # What write queue length does an incoming req see
system.mem_ctrls.wrQLenPdf::37                      0                       # What write queue length does an incoming req see
system.mem_ctrls.wrQLenPdf::38                      0                       # What write queue length does an incoming req see
system.mem_ctrls.wrQLenPdf::39                      0                       # What write queue length does an incoming req see
system.mem_ctrls.wrQLenPdf::40                      0                       # What write queue length does an incoming req see
system.mem_ctrls.wrQLenPdf::41                      0                       # What write queue length does an incoming req see
system.mem_ctrls.wrQLenPdf::42                      0                       # What write queue length does an incoming req see
system.mem_ctrls.wrQLenPdf::43                      0                       # What write queue length does an incoming req see
system.mem_ctrls.wrQLenPdf::44                      0                       # What write queue length does an incoming req see
system.mem_ctrls.wrQLenPdf::45                      0                       # What write queue length does an incoming req see
system.mem_ctrls.wrQLenPdf::46                      0                       # What write queue length does an incoming req see
system.mem_ctrls.wrQLenPdf::47                      0                       # What write queue length does an incoming req see
system.mem_ctrls.wrQLenPdf::48                      0                       # What write queue length does an incoming req see
system.mem_ctrls.wrQLenPdf::49                      0                       # What write queue length does an incoming req see
system.mem_ctrls.wrQLenPdf::50                      0                       # What write queue length does an incoming req see
system.mem_ctrls.wrQLenPdf::51                      0                       # What write queue length does an incoming req see
system.mem_ctrls.wrQLenPdf::52                      0                       # What write queue length does an incoming req see
system.mem_ctrls.wrQLenPdf::53                      0                       # What write queue length does an incoming req see
system.mem_ctrls.wrQLenPdf::54                      0                       # What write queue length does an incoming req see
system.mem_ctrls.wrQLenPdf::55                      0                       # What write queue length does an incoming req see
system.mem_ctrls.wrQLenPdf::56                      0                       # What write queue length does an incoming req see
system.mem_ctrls.wrQLenPdf::57                      0                       # What write queue length does an incoming req see
system.mem_ctrls.wrQLenPdf::58                      0                       # What write queue length does an incoming req see
system.mem_ctrls.wrQLenPdf::59                      0                       # What write queue length does an incoming req see
system.mem_ctrls.wrQLenPdf::60                      0                       # What write queue length does an incoming req see
system.mem_ctrls.wrQLenPdf::61                      0                       # What write queue length does an incoming req see
system.mem_ctrls.wrQLenPdf::62                      0                       # What write queue length does an incoming req see
system.mem_ctrls.wrQLenPdf::63                      0                       # What write queue length does an incoming req see
system.mem_ctrls.bytesPerActivate::samples        14027                       # Bytes accessed per row activation
system.mem_ctrls.bytesPerActivate::mean    695.394881                       # Bytes accessed per row activation
system.mem_ctrls.bytesPerActivate::gmean   506.928743                       # Bytes accessed per row activation
system.mem_ctrls.bytesPerActivate::stdev   391.321586                       # Bytes accessed per row activation
system.mem_ctrls.bytesPerActivate::0-127         1508     10.75%     10.75% # Bytes accessed per row activation
system.mem_ctrls.bytesPerActivate::128-255         1274      9.08%     19.83% # Bytes accessed per row activation
system.mem_ctrls.bytesPerActivate::256-383         1634     11.65%     31.48% # Bytes accessed per row activation
system.mem_ctrls.bytesPerActivate::384-511          231      1.65%     33.13% # Bytes accessed per row activation
system.mem_ctrls.bytesPerActivate::512-639         1127      8.03%     41.16% # Bytes accessed per row activation
system.mem_ctrls.bytesPerActivate::640-767          234      1.67%     42.83% # Bytes accessed per row activation
system.mem_ctrls.bytesPerActivate::768-895          237      1.69%     44.52% # Bytes accessed per row activation
system.mem_ctrls.bytesPerActivate::896-1023          109      0.78%     45.30% # Bytes accessed per row activation
system.mem_ctrls.bytesPerActivate::1024-1151         7673     54.70%    100.00% # Bytes accessed per row activation
system.mem_ctrls.bytesPerActivate::total        14027                       # Bytes accessed per row activation
system.mem_ctrls.rdPerTurnAround::samples           75                       # Reads before turning the bus around for writes
system.mem_ctrls.rdPerTurnAround::mean    2013.853333                       # Reads before turning the bus around for writes
system.mem_ctrls.rdPerTurnAround::gmean     31.930183                       # Reads before turning the bus around for writes
system.mem_ctrls.rdPerTurnAround::stdev  12269.350905                       # Reads before turning the bus around for writes
system.mem_ctrls.rdPerTurnAround::0-4095           73     97.33%     97.33% # Reads before turning the bus around for writes
system.mem_ctrls.rdPerTurnAround::57344-61439            1      1.33%     98.67% # Reads before turning the bus around for writes
system.mem_ctrls.rdPerTurnAround::86016-90111            1      1.33%    100.00% # Reads before turning the bus around for writes
system.mem_ctrls.rdPerTurnAround::total            75                       # Reads before turning the bus around for writes
system.mem_ctrls.wrPerTurnAround::samples           75                       # Writes before turning the bus around for reads
system.mem_ctrls.wrPerTurnAround::mean      17.746667                       # Writes before turning the bus around for reads
system.mem_ctrls.wrPerTurnAround::gmean     17.734677                       # Writes before turning the bus around for reads
system.mem_ctrls.wrPerTurnAround::stdev      0.638692                       # Writes before turning the bus around for reads
system.mem_ctrls.wrPerTurnAround::16                8     10.67%     10.67% # Writes before turning the bus around for reads
system.mem_ctrls.wrPerTurnAround::17                3      4.00%     14.67% # Writes before turning the bus around for reads
system.mem_ctrls.wrPerTurnAround::18               64     85.33%    100.00% # Writes before turning the bus around for reads
system.mem_ctrls.wrPerTurnAround::total            75                       # Writes before turning the bus around for reads
system.mem_ctrls.totQLat                   1817115250                       # Total ticks spent queuing
system.mem_ctrls.totMemAccLat              4649171500                       # Total ticks spent from burst creation until serviced by the DRAM
system.mem_ctrls.totBusLat                  755215000                       # Total ticks spent in databus transfers
system.mem_ctrls.avgQLat                     12030.45                       # Average queueing delay per DRAM burst
system.mem_ctrls.avgBusLat                    5000.00                       # Average bus latency per DRAM burst
system.mem_ctrls.avgMemAccLat                30780.45                       # Average memory access latency per DRAM burst
system.mem_ctrls.avgRdBW                       633.17                       # Average DRAM read bandwidth in MiByte/s
system.mem_ctrls.avgWrBW                         5.58                       # Average achieved write bandwidth in MiByte/s
system.mem_ctrls.avgRdBWSys                    633.19                       # Average system read bandwidth in MiByte/s
system.mem_ctrls.avgWrBWSys                      5.54                       # Average system write bandwidth in MiByte/s
system.mem_ctrls.peakBW                      12800.00                       # Theoretical peak bandwidth in MiByte/s
system.mem_ctrls.busUtil                         4.99                       # Data bus utilization in percentage
system.mem_ctrls.busUtilRead                     4.95                       # Data bus utilization in percentage for reads
system.mem_ctrls.busUtilWrite                    0.04                       # Data bus utilization in percentage for writes
system.mem_ctrls.avgRdQLen                       1.26                       # Average read queue length when enqueuing
system.mem_ctrls.avgWrQLen                      27.32                       # Average write queue length when enqueuing
system.mem_ctrls.readRowHits                   137168                       # Number of row buffer hits during reads
system.mem_ctrls.writeRowHits                    1183                       # Number of row buffer hits during writes
system.mem_ctrls.readRowHitRate                 90.81                       # Row buffer hit rate for reads
system.mem_ctrls.writeRowHitRate                89.55                       # Row buffer hit rate for writes
system.mem_ctrls.avgGap                      98887.18                       # Average gap between requests
system.mem_ctrls.pageHitRate                    90.80                       # Row buffer hit rate, read and write combined
system.mem_ctrls_0.actEnergy                 51643620                       # Energy for activate commands per rank (pJ)
system.mem_ctrls_0.preEnergy                 27456825                       # Energy for precharge commands per rank (pJ)
system.mem_ctrls_0.readEnergy               540419460                       # Energy for read commands per rank (pJ)
system.mem_ctrls_0.writeEnergy                2030580                       # Energy for write commands per rank (pJ)
system.mem_ctrls_0.refreshEnergy         805178400.000000                       # Energy for refresh commands per rank (pJ)
system.mem_ctrls_0.actBackEnergy            902106510                       # Energy for active background per rank (pJ)
system.mem_ctrls_0.preBackEnergy             38514720                       # Energy for precharge background per rank (pJ)
system.mem_ctrls_0.actPowerDownEnergy      3113133090                       # Energy for active power-down per rank (pJ)
system.mem_ctrls_0.prePowerDownEnergy       302677440                       # Energy for precharge power-down per rank (pJ)
system.mem_ctrls_0.selfRefreshEnergy       1376290500                       # Energy for self refresh per rank (pJ)
system.mem_ctrls_0.totalEnergy             7159451145                       # Total energy per rank (pJ)
system.mem_ctrls_0.averagePower            468.938873                       # Core power per rank (mW)
system.mem_ctrls_0.totalIdleTime          13000030125                       # Total Idle time Per DRAM Rank
system.mem_ctrls_0.memoryStateTime::IDLE     33942000                       # Time in different power states
system.mem_ctrls_0.memoryStateTime::REF     341098000                       # Time in different power states
system.mem_ctrls_0.memoryStateTime::SREF   5573476500                       # Time in different power states
system.mem_ctrls_0.memoryStateTime::PRE_PDN    788201750                       # Time in different power states
system.mem_ctrls_0.memoryStateTime::ACT    1703369750                       # Time in different power states
system.mem_ctrls_0.memoryStateTime::ACT_PDN   6827256125                       # Time in different power states
system.mem_ctrls_1.actEnergy                 48480600                       # Energy for activate commands per rank (pJ)
system.mem_ctrls_1.preEnergy                 25775640                       # Energy for precharge commands per rank (pJ)
system.mem_ctrls_1.readEnergy               538027560                       # Energy for read commands per rank (pJ)
system.mem_ctrls_1.writeEnergy                4917240                       # Energy for write commands per rank (pJ)
system.mem_ctrls_1.refreshEnergy         798417360.000000                       # Energy for refresh commands per rank (pJ)
system.mem_ctrls_1.actBackEnergy            894157860                       # Energy for active background per rank (pJ)
system.mem_ctrls_1.preBackEnergy             37096320                       # Energy for precharge background per rank (pJ)
system.mem_ctrls_1.actPowerDownEnergy      3097389690                       # Energy for active power-down per rank (pJ)
system.mem_ctrls_1.prePowerDownEnergy       296606400                       # Energy for precharge power-down per rank (pJ)
system.mem_ctrls_1.selfRefreshEnergy       1392336420                       # Energy for self refresh per rank (pJ)
system.mem_ctrls_1.totalEnergy             7133205090                       # Total energy per rank (pJ)
system.mem_ctrls_1.averagePower            467.219775                       # Core power per rank (mW)
system.mem_ctrls_1.totalIdleTime          13013951375                       # Total Idle time Per DRAM Rank
system.mem_ctrls_1.memoryStateTime::IDLE     33660000                       # Time in different power states
system.mem_ctrls_1.memoryStateTime::REF     338226000                       # Time in different power states
system.mem_ctrls_1.memoryStateTime::SREF   5644933000                       # Time in different power states
system.mem_ctrls_1.memoryStateTime::PRE_PDN    772444000                       # Time in different power states
system.mem_ctrls_1.memoryStateTime::ACT    1685530250                       # Time in different power states
system.mem_ctrls_1.memoryStateTime::ACT_PDN   6792550875                       # Time in different power states
system.pwrStateResidencyTicks::UNDEFINED  15267344125                       # Cumulative time (in ticks) in various power states
system.cpu0.branchPred.lookups                5200054                       # Number of BP lookups
system.cpu0.branchPred.condPredicted          5200054                       # Number of conditional branches predicted
system.cpu0.branchPred.condIncorrect            10245                       # Number of conditional branches incorrect
system.cpu0.branchPred.BTBLookups             4451232                       # Number of BTB lookups
system.cpu0.branchPred.BTBHits                      0                       # Number of BTB hits
system.cpu0.branchPred.BTBCorrect                   0                       # Number of correct BTB predictions (this stat may not work properly.
system.cpu0.branchPred.BTBHitPct             0.000000                       # BTB Hit Percentage
system.cpu0.branchPred.usedRAS                 450517                       # Number of times the RAS was used to get a target.
system.cpu0.branchPred.RASInCorrect              1109                       # Number of incorrect RAS predictions.
system.cpu0.branchPred.indirectLookups        4451232                       # Number of indirect predictor lookups.
system.cpu0.branchPred.indirectHits           3029538                       # Number of indirect target hits.
system.cpu0.branchPred.indirectMisses         1421694                       # Number of indirect misses.
system.cpu0.branchPredindirectMispredicted         6732                       # Number of mispredicted indirect branches.
system.cpu_voltage_domain.voltage                   1                       # Voltage in Volts
system.cpu_clk_domain.clock                       500                       # Clock period in ticks
system.cpu0.dtb.walker.pwrStateResidencyTicks::UNDEFINED  15267344125                       # Cumulative time (in ticks) in various power states
system.cpu0.dtb.rdAccesses                    5507194                       # TLB accesses on read requests
system.cpu0.dtb.wrAccesses                    3088930                       # TLB accesses on write requests
system.cpu0.dtb.rdMisses                         2748                       # TLB misses on read requests
system.cpu0.dtb.wrMisses                         3131                       # TLB misses on write requests
system.cpu0.apic_clk_domain.clock                8000                       # Clock period in ticks
system.cpu0.interrupts.pwrStateResidencyTicks::UNDEFINED  15267344125                       # Cumulative time (in ticks) in various power states
system.cpu0.itb.walker.pwrStateResidencyTicks::UNDEFINED  15267344125                       # Cumulative time (in ticks) in various power states
system.cpu0.itb.rdAccesses                          0                       # TLB accesses on read requests
system.cpu0.itb.wrAccesses                    2108884                       # TLB accesses on write requests
system.cpu0.itb.rdMisses                            0                       # TLB misses on read requests
system.cpu0.itb.wrMisses                          153                       # TLB misses on write requests
system.cpu0.workload.numSyscalls                   69                       # Number of system calls
system.cpu0.pwrStateResidencyTicks::ON    15267344125                       # Cumulative time (in ticks) in various power states
system.cpu0.numCycles                        30534689                       # number of cpu cycles simulated
system.cpu0.numWorkItemsStarted                     0                       # number of work items this cpu started
system.cpu0.numWorkItemsCompleted                   0                       # number of work items this cpu completed
system.cpu0.fetch.icacheStallCycles           2135068                       # Number of cycles fetch is stalled on an Icache miss
system.cpu0.fetch.Insts                      22472102                       # Number of instructions fetch has processed
system.cpu0.fetch.Branches                    5200054                       # Number of branches that fetch encountered
system.cpu0.fetch.predictedBranches           3480055                       # Number of branches that fetch has predicted taken
system.cpu0.fetch.Cycles                     28350789                       # Number of cycles fetch has run and was not squashing or blocked
system.cpu0.fetch.SquashCycles                  20956                       # Number of cycles fetch has spent squashing
system.cpu0.fetch.MiscStallCycles                  32                       # Number of cycles fetch has spent waiting on interrupts, or bad addresses, or out of MSHRs
system.cpu0.fetch.PendingTrapStallCycles          195                       # Number of stall cycles due to pending traps
system.cpu0.fetch.IcacheWaitRetryStallCycles           17                       # Number of stall cycles due to full MSHR
system.cpu0.fetch.CacheLines                  2108838                       # Number of cache lines fetched
system.cpu0.fetch.IcacheSquashes                 3161                       # Number of outstanding Icache misses that were squashed
system.cpu0.fetch.rateDist::samples          30496579                       # Number of instructions fetched each cycle (Total)
system.cpu0.fetch.rateDist::mean             1.549913                       # Number of instructions fetched each cycle (Total)
system.cpu0.fetch.rateDist::stdev            2.945853                       # Number of instructions fetched each cycle (Total)
system.cpu0.fetch.rateDist::underflows              0      0.00%      0.00% # Number of instructions fetched each cycle (Total)
system.cpu0.fetch.rateDist::0                23169647     75.97%     75.97% # Number of instructions fetched each cycle (Total)
system.cpu0.fetch.rateDist::1                  102668      0.34%     76.31% # Number of instructions fetched each cycle (Total)
system.cpu0.fetch.rateDist::2                  316041      1.04%     77.35% # Number of instructions fetched each cycle (Total)
system.cpu0.fetch.rateDist::3                  802221      2.63%     79.98% # Number of instructions fetched each cycle (Total)
system.cpu0.fetch.rateDist::4                  405578      1.33%     81.31% # Number of instructions fetched each cycle (Total)
system.cpu0.fetch.rateDist::5                  570999      1.87%     83.18% # Number of instructions fetched each cycle (Total)
system.cpu0.fetch.rateDist::6                  541200      1.77%     84.95% # Number of instructions fetched each cycle (Total)
system.cpu0.fetch.rateDist::7                  304669      1.00%     85.95% # Number of instructions fetched each cycle (Total)
system.cpu0.fetch.rateDist::8                 4283556     14.05%    100.00% # Number of instructions fetched each cycle (Total)
system.cpu0.fetch.rateDist::overflows               0      0.00%    100.00% # Number of instructions fetched each cycle (Total)
system.cpu0.fetch.rateDist::min_value               0                       # Number of instructions fetched each cycle (Total)
system.cpu0.fetch.rateDist::max_value               8                       # Number of instructions fetched each cycle (Total)
system.cpu0.fetch.rateDist::total            30496579                       # Number of instructions fetched each cycle (Total)
system.cpu0.fetch.branchRate                 0.170300                       # Number of branch fetches per cycle
system.cpu0.fetch.rate                       0.735953                       # Number of inst fetches per cycle
system.cpu0.decode.IdleCycles                 2295507                       # Number of cycles decode is idle
system.cpu0.decode.BlockedCycles             21756196                       # Number of cycles decode is blocked
system.cpu0.decode.RunCycles                  4094667                       # Number of cycles decode is running
system.cpu0.decode.UnblockCycles              2339731                       # Number of cycles decode is unblocking
system.cpu0.decode.SquashCycles                 10478                       # Number of cycles decode is squashing
system.cpu0.decode.DecodedInsts              47182779                       # Number of instructions handled by decode
system.cpu0.rename.SquashCycles                 10478                       # Number of cycles rename is squashing
system.cpu0.rename.IdleCycles                 3081496                       # Number of cycles rename is idle
system.cpu0.rename.BlockCycles                7945504                       # Number of cycles rename is blocking
system.cpu0.rename.serializeStallCycles          3671                       # count of cycles rename stalled for serializing inst
system.cpu0.rename.RunCycles                  5614931                       # Number of cycles rename is running
system.cpu0.rename.UnblockCycles             13840499                       # Number of cycles rename is unblocking
system.cpu0.rename.RenamedInsts              47133785                       # Number of instructions processed by rename
system.cpu0.rename.ROBFullEvents                 1473                       # Number of times rename has blocked due to ROB full
system.cpu0.rename.IQFullEvents               1415914                       # Number of times rename has blocked due to IQ full
system.cpu0.rename.LQFullEvents               1667484                       # Number of times rename has blocked due to LQ full
system.cpu0.rename.SQFullEvents              10079058                       # Number of times rename has blocked due to SQ full
system.cpu0.rename.RenamedOperands           58762080                       # Number of destination operands rename has renamed
system.cpu0.rename.RenameLookups            119203232                       # Number of register rename lookups that rename has made
system.cpu0.rename.int_rename_lookups        69605822                       # Number of integer rename lookups
system.cpu0.rename.fp_rename_lookups          2027491                       # Number of floating rename lookups
system.cpu0.rename.CommittedMaps             58322117                       # Number of HB maps that are committed
system.cpu0.rename.UndoneMaps                  440066                       # Number of HB maps that are undone due to squashing
system.cpu0.rename.serializingInsts               176                       # count of serializing insts renamed
system.cpu0.rename.tempSerializingInsts           186                       # count of temporary serializing insts renamed
system.cpu0.rename.skidInsts                 11169373                       # count of insts added to the skid buffer
system.cpu0.memDep0.insertedLoads             5172982                       # Number of loads inserted to the mem dependence unit.
system.cpu0.memDep0.insertedStores            3100435                       # Number of stores inserted to the mem dependence unit.
system.cpu0.memDep0.conflictingLoads           157609                       # Number of conflicting loads.
system.cpu0.memDep0.conflictingStores           24496                       # Number of conflicting stores.
system.cpu0.iq.iqInstsAdded                  47038045                       # Number of instructions added to the IQ (excludes non-spec)
system.cpu0.iq.iqNonSpecInstsAdded                957                       # Number of non-speculative instructions added to the IQ
system.cpu0.iq.iqInstsIssued                 47224240                       # Number of instructions issued
system.cpu0.iq.iqSquashedInstsIssued             2876                       # Number of squashed instructions issued
system.cpu0.iq.iqSquashedInstsExamined         276198                       # Number of squashed instructions iterated over during squash; mainly for profiling
system.cpu0.iq.iqSquashedOperandsExamined       404430                       # Number of squashed operands that are examined and possibly removed from graph
system.cpu0.iq.iqSquashedNonSpecRemoved           828                       # Number of squashed non-spec instructions that were removed
system.cpu0.iq.issued_per_cycle::samples     30496579                       # Number of insts issued each cycle
system.cpu0.iq.issued_per_cycle::mean        1.548509                       # Number of insts issued each cycle
system.cpu0.iq.issued_per_cycle::stdev       2.307182                       # Number of insts issued each cycle
system.cpu0.iq.issued_per_cycle::underflows            0      0.00%      0.00% # Number of insts issued each cycle
system.cpu0.iq.issued_per_cycle::0           18667555     61.21%     61.21% # Number of insts issued each cycle
system.cpu0.iq.issued_per_cycle::1            1413989      4.64%     65.85% # Number of insts issued each cycle
system.cpu0.iq.issued_per_cycle::2            1722755      5.65%     71.50% # Number of insts issued each cycle
system.cpu0.iq.issued_per_cycle::3            1967043      6.45%     77.95% # Number of insts issued each cycle
system.cpu0.iq.issued_per_cycle::4            1976864      6.48%     84.43% # Number of insts issued each cycle
system.cpu0.iq.issued_per_cycle::5            2249332      7.38%     91.81% # Number of insts issued each cycle
system.cpu0.iq.issued_per_cycle::6             947765      3.11%     94.91% # Number of insts issued each cycle
system.cpu0.iq.issued_per_cycle::7             787302      2.58%     97.49% # Number of insts issued each cycle
system.cpu0.iq.issued_per_cycle::8             763974      2.51%    100.00% # Number of insts issued each cycle
system.cpu0.iq.issued_per_cycle::overflows            0      0.00%    100.00% # Number of insts issued each cycle
system.cpu0.iq.issued_per_cycle::min_value            0                       # Number of insts issued each cycle
system.cpu0.iq.issued_per_cycle::max_value            8                       # Number of insts issued each cycle
system.cpu0.iq.issued_per_cycle::total       30496579                       # Number of insts issued each cycle
system.cpu0.iq.fu_full::No_OpClass                  0      0.00%      0.00% # attempts to use FU when none available
system.cpu0.iq.fu_full::IntAlu                 451691     65.16%     65.16% # attempts to use FU when none available
system.cpu0.iq.fu_full::IntMult                     0      0.00%     65.16% # attempts to use FU when none available
system.cpu0.iq.fu_full::IntDiv                      0      0.00%     65.16% # attempts to use FU when none available
system.cpu0.iq.fu_full::FloatAdd                64225      9.26%     74.43% # attempts to use FU when none available
system.cpu0.iq.fu_full::FloatCmp                    0      0.00%     74.43% # attempts to use FU when none available
system.cpu0.iq.fu_full::FloatCvt                    0      0.00%     74.43% # attempts to use FU when none available
system.cpu0.iq.fu_full::FloatMult                   0      0.00%     74.43% # attempts to use FU when none available
system.cpu0.iq.fu_full::FloatMultAcc                0      0.00%     74.43% # attempts to use FU when none available
system.cpu0.iq.fu_full::FloatDiv                    0      0.00%     74.43% # attempts to use FU when none available
system.cpu0.iq.fu_full::FloatMisc                   0      0.00%     74.43% # attempts to use FU when none available
system.cpu0.iq.fu_full::FloatSqrt                   0      0.00%     74.43% # attempts to use FU when none available
system.cpu0.iq.fu_full::SimdAdd                     0      0.00%     74.43% # attempts to use FU when none available
system.cpu0.iq.fu_full::SimdAddAcc                  0      0.00%     74.43% # attempts to use FU when none available
system.cpu0.iq.fu_full::SimdAlu                     0      0.00%     74.43% # attempts to use FU when none available
system.cpu0.iq.fu_full::SimdCmp                     0      0.00%     74.43% # attempts to use FU when none available
system.cpu0.iq.fu_full::SimdCvt                     0      0.00%     74.43% # attempts to use FU when none available
system.cpu0.iq.fu_full::SimdMisc                    0      0.00%     74.43% # attempts to use FU when none available
system.cpu0.iq.fu_full::SimdMult                    0      0.00%     74.43% # attempts to use FU when none available
system.cpu0.iq.fu_full::SimdMultAcc                 0      0.00%     74.43% # attempts to use FU when none available
system.cpu0.iq.fu_full::SimdShift                   0      0.00%     74.43% # attempts to use FU when none available
system.cpu0.iq.fu_full::SimdShiftAcc                0      0.00%     74.43% # attempts to use FU when none available
system.cpu0.iq.fu_full::SimdSqrt                    0      0.00%     74.43% # attempts to use FU when none available
system.cpu0.iq.fu_full::SimdFloatAdd                0      0.00%     74.43% # attempts to use FU when none available
system.cpu0.iq.fu_full::SimdFloatAlu                0      0.00%     74.43% # attempts to use FU when none available
system.cpu0.iq.fu_full::SimdFloatCmp                0      0.00%     74.43% # attempts to use FU when none available
system.cpu0.iq.fu_full::SimdFloatCvt                0      0.00%     74.43% # attempts to use FU when none available
system.cpu0.iq.fu_full::SimdFloatDiv                0      0.00%     74.43% # attempts to use FU when none available
system.cpu0.iq.fu_full::SimdFloatMisc               0      0.00%     74.43% # attempts to use FU when none available
system.cpu0.iq.fu_full::SimdFloatMult               0      0.00%     74.43% # attempts to use FU when none available
system.cpu0.iq.fu_full::SimdFloatMultAcc            0      0.00%     74.43% # attempts to use FU when none available
system.cpu0.iq.fu_full::SimdFloatSqrt               0      0.00%     74.43% # attempts to use FU when none available
system.cpu0.iq.fu_full::MemRead                109034     15.73%     90.15% # attempts to use FU when none available
system.cpu0.iq.fu_full::MemWrite                63875      9.21%     99.37% # attempts to use FU when none available
system.cpu0.iq.fu_full::FloatMemRead             4077      0.59%     99.96% # attempts to use FU when none available
system.cpu0.iq.fu_full::FloatMemWrite             299      0.04%    100.00% # attempts to use FU when none available
system.cpu0.iq.fu_full::IprAccess                   0      0.00%    100.00% # attempts to use FU when none available
system.cpu0.iq.fu_full::InstPrefetch                0      0.00%    100.00% # attempts to use FU when none available
system.cpu0.iq.FU_type_0::No_OpClass           324347      0.69%      0.69% # Type of FU issued
system.cpu0.iq.FU_type_0::IntAlu             36516560     77.33%     78.01% # Type of FU issued
system.cpu0.iq.FU_type_0::IntMult                 123      0.00%     78.01% # Type of FU issued
system.cpu0.iq.FU_type_0::IntDiv               954467      2.02%     80.03% # Type of FU issued
system.cpu0.iq.FU_type_0::FloatAdd             889747      1.88%     81.92% # Type of FU issued
system.cpu0.iq.FU_type_0::FloatCmp                  0      0.00%     81.92% # Type of FU issued
system.cpu0.iq.FU_type_0::FloatCvt                  0      0.00%     81.92% # Type of FU issued
system.cpu0.iq.FU_type_0::FloatMult                 0      0.00%     81.92% # Type of FU issued
system.cpu0.iq.FU_type_0::FloatMultAcc              0      0.00%     81.92% # Type of FU issued
system.cpu0.iq.FU_type_0::FloatDiv                  0      0.00%     81.92% # Type of FU issued
system.cpu0.iq.FU_type_0::FloatMisc                 0      0.00%     81.92% # Type of FU issued
system.cpu0.iq.FU_type_0::FloatSqrt                 0      0.00%     81.92% # Type of FU issued
system.cpu0.iq.FU_type_0::SimdAdd                   0      0.00%     81.92% # Type of FU issued
system.cpu0.iq.FU_type_0::SimdAddAcc                0      0.00%     81.92% # Type of FU issued
system.cpu0.iq.FU_type_0::SimdAlu                   0      0.00%     81.92% # Type of FU issued
system.cpu0.iq.FU_type_0::SimdCmp                   0      0.00%     81.92% # Type of FU issued
system.cpu0.iq.FU_type_0::SimdCvt                   0      0.00%     81.92% # Type of FU issued
system.cpu0.iq.FU_type_0::SimdMisc                  0      0.00%     81.92% # Type of FU issued
system.cpu0.iq.FU_type_0::SimdMult                  0      0.00%     81.92% # Type of FU issued
system.cpu0.iq.FU_type_0::SimdMultAcc               0      0.00%     81.92% # Type of FU issued
system.cpu0.iq.FU_type_0::SimdShift                 0      0.00%     81.92% # Type of FU issued
system.cpu0.iq.FU_type_0::SimdShiftAcc              0      0.00%     81.92% # Type of FU issued
system.cpu0.iq.FU_type_0::SimdSqrt                  0      0.00%     81.92% # Type of FU issued
system.cpu0.iq.FU_type_0::SimdFloatAdd              0      0.00%     81.92% # Type of FU issued
system.cpu0.iq.FU_type_0::SimdFloatAlu              0      0.00%     81.92% # Type of FU issued
system.cpu0.iq.FU_type_0::SimdFloatCmp              0      0.00%     81.92% # Type of FU issued
system.cpu0.iq.FU_type_0::SimdFloatCvt              0      0.00%     81.92% # Type of FU issued
system.cpu0.iq.FU_type_0::SimdFloatDiv              0      0.00%     81.92% # Type of FU issued
system.cpu0.iq.FU_type_0::SimdFloatMisc             0      0.00%     81.92% # Type of FU issued
system.cpu0.iq.FU_type_0::SimdFloatMult             0      0.00%     81.92% # Type of FU issued
system.cpu0.iq.FU_type_0::SimdFloatMultAcc            0      0.00%     81.92% # Type of FU issued
system.cpu0.iq.FU_type_0::SimdFloatSqrt             0      0.00%     81.92% # Type of FU issued
system.cpu0.iq.FU_type_0::MemRead             5250702     11.12%     93.04% # Type of FU issued
system.cpu0.iq.FU_type_0::MemWrite            3000779      6.35%     99.39% # Type of FU issued
system.cpu0.iq.FU_type_0::FloatMemRead         197213      0.42%     99.81% # Type of FU issued
system.cpu0.iq.FU_type_0::FloatMemWrite         90302      0.19%    100.00% # Type of FU issued
system.cpu0.iq.FU_type_0::IprAccess                 0      0.00%    100.00% # Type of FU issued
system.cpu0.iq.FU_type_0::InstPrefetch              0      0.00%    100.00% # Type of FU issued
system.cpu0.iq.FU_type_0::total              47224240                       # Type of FU issued
system.cpu0.iq.rate                          1.546577                       # Inst issue rate
system.cpu0.iq.fu_busy_cnt                     693201                       # FU busy when requested
system.cpu0.iq.fu_busy_rate                  0.014679                       # FU busy rate (busy events/executed inst)
system.cpu0.iq.int_inst_queue_reads         123163947                       # Number of integer instruction queue reads
system.cpu0.iq.int_inst_queue_writes         46075235                       # Number of integer instruction queue writes
system.cpu0.iq.int_inst_queue_wakeup_accesses     45700236                       # Number of integer instruction queue wakeup accesses
system.cpu0.iq.fp_inst_queue_reads            2477185                       # Number of floating instruction queue reads
system.cpu0.iq.fp_inst_queue_writes           1240239                       # Number of floating instruction queue writes
system.cpu0.iq.fp_inst_queue_wakeup_accesses      1201011                       # Number of floating instruction queue wakeup accesses
system.cpu0.iq.vec_inst_queue_reads                 0                       # Number of vector instruction queue reads
system.cpu0.iq.vec_inst_queue_writes                0                       # Number of vector instruction queue writes
system.cpu0.iq.vec_inst_queue_wakeup_accesses            0                       # Number of vector instruction queue wakeup accesses
system.cpu0.iq.int_alu_accesses              46320285                       # Number of integer alu accesses
system.cpu0.iq.fp_alu_accesses                1272809                       # Number of floating point alu accesses
system.cpu0.iq.vec_alu_accesses                     0                       # Number of vector alu accesses
system.cpu0.iew.lsq.thread0.forwLoads          511503                       # Number of loads that had data forwarded from stores
system.cpu0.iew.lsq.thread0.invAddrLoads            0                       # Number of loads ignored due to an invalid address
system.cpu0.iew.lsq.thread0.squashedLoads        37156                       # Number of loads squashed
system.cpu0.iew.lsq.thread0.ignoredResponses           66                       # Number of memory responses ignored because the instruction is squashed
system.cpu0.iew.lsq.thread0.memOrderViolation          285                       # Number of memory ordering violations
system.cpu0.iew.lsq.thread0.squashedStores        18677                       # Number of stores squashed
system.cpu0.iew.lsq.thread0.invAddrSwpfs            0                       # Number of software prefetches ignored due to an invalid address
system.cpu0.iew.lsq.thread0.blockedLoads            0                       # Number of blocked loads due to partial load-store forwarding
system.cpu0.iew.lsq.thread0.rescheduledLoads           18                       # Number of loads that were rescheduled
system.cpu0.iew.lsq.thread0.cacheBlocked       287277                       # Number of times an access to memory failed due to the cache being blocked
system.cpu0.iew.iewIdleCycles                       0                       # Number of cycles IEW is idle
system.cpu0.iew.iewSquashCycles                 10478                       # Number of cycles IEW is squashing
system.cpu0.iew.iewBlockCycles                6330602                       # Number of cycles IEW is blocking
system.cpu0.iew.iewUnblockCycles              1410234                       # Number of cycles IEW is unblocking
system.cpu0.iew.iewDispatchedInsts           47039002                       # Number of instructions dispatched to IQ
system.cpu0.iew.iewDispSquashedInsts              974                       # Number of squashed instructions skipped by dispatch
system.cpu0.iew.iewDispLoadInsts              5172982                       # Number of dispatched load instructions
system.cpu0.iew.iewDispStoreInsts             3100435                       # Number of dispatched store instructions
system.cpu0.iew.iewDispNonSpecInsts               417                       # Number of dispatched non-speculative instructions
system.cpu0.iew.iewIQFullEvents                 62098                       # Number of times the IQ has become full, causing a stall
system.cpu0.iew.iewLSQFullEvents              1316204                       # Number of times the LSQ has become full, causing a stall
system.cpu0.iew.memOrderViolationEvents           285                       # Number of memory order violations
system.cpu0.iew.predictedTakenIncorrect          3196                       # Number of branches that were predicted taken incorrectly
system.cpu0.iew.predictedNotTakenIncorrect         9511                       # Number of branches that were predicted not taken incorrectly
system.cpu0.iew.branchMispredicts               12707                       # Number of branch mispredicts detected at execute
system.cpu0.iew.iewExecutedInsts             47199494                       # Number of executed instructions
system.cpu0.iew.iewExecLoadInsts              5443331                       # Number of load instructions executed
system.cpu0.iew.iewExecSquashedInsts            24742                       # Number of squashed instructions skipped in execute
system.cpu0.iew.exec_swp                            0                       # number of swp insts executed
system.cpu0.iew.exec_nop                            0                       # number of nop insts executed
system.cpu0.iew.exec_refs                     8532232                       # number of memory reference insts executed
system.cpu0.iew.exec_branches                 5158882                       # Number of branches executed
system.cpu0.iew.exec_stores                   3088901                       # Number of stores executed
system.cpu0.iew.exec_rate                    1.545766                       # Inst execution rate
system.cpu0.iew.wb_sent                      46906016                       # cumulative count of insts sent to commit
system.cpu0.iew.wb_count                     46901247                       # cumulative count of insts written-back
system.cpu0.iew.wb_producers                 35499959                       # num instructions producing a value
system.cpu0.iew.wb_consumers                 66265334                       # num instructions consuming a value
system.cpu0.iew.wb_rate                      1.535999                       # insts written-back per cycle
system.cpu0.iew.wb_fanout                    0.535724                       # average fanout of values written-back
system.cpu0.commit.commitSquashedInsts         276462                       # The number of squashed insts skipped by commit
system.cpu0.commit.commitNonSpecStalls            129                       # The number of times commit has been forced to stall to communicate backwards
system.cpu0.commit.branchMispredicts            10259                       # The number of times a branch was mispredicted
system.cpu0.commit.committed_per_cycle::samples     30453959                       # Number of insts commited each cycle
system.cpu0.commit.committed_per_cycle::mean     1.535528                       # Number of insts commited each cycle
system.cpu0.commit.committed_per_cycle::stdev     2.652708                       # Number of insts commited each cycle
system.cpu0.commit.committed_per_cycle::underflows            0      0.00%      0.00% # Number of insts commited each cycle
system.cpu0.commit.committed_per_cycle::0     19813163     65.06%     65.06% # Number of insts commited each cycle
system.cpu0.commit.committed_per_cycle::1      2106430      6.92%     71.98% # Number of insts commited each cycle
system.cpu0.commit.committed_per_cycle::2      1467680      4.82%     76.80% # Number of insts commited each cycle
system.cpu0.commit.committed_per_cycle::3      1862451      6.12%     82.91% # Number of insts commited each cycle
system.cpu0.commit.committed_per_cycle::4       221461      0.73%     83.64% # Number of insts commited each cycle
system.cpu0.commit.committed_per_cycle::5      1283507      4.21%     87.85% # Number of insts commited each cycle
system.cpu0.commit.committed_per_cycle::6       219567      0.72%     88.57% # Number of insts commited each cycle
system.cpu0.commit.committed_per_cycle::7       324632      1.07%     89.64% # Number of insts commited each cycle
system.cpu0.commit.committed_per_cycle::8      3155068     10.36%    100.00% # Number of insts commited each cycle
system.cpu0.commit.committed_per_cycle::overflows            0      0.00%    100.00% # Number of insts commited each cycle
system.cpu0.commit.committed_per_cycle::min_value            0                       # Number of insts commited each cycle
system.cpu0.commit.committed_per_cycle::max_value            8                       # Number of insts commited each cycle
system.cpu0.commit.committed_per_cycle::total     30453959                       # Number of insts commited each cycle
system.cpu0.commit.committedInsts            22186205                       # Number of instructions committed
system.cpu0.commit.committedOps              46762892                       # Number of ops (including micro ops) committed
system.cpu0.commit.swp_count                        0                       # Number of s/w prefetches committed
system.cpu0.commit.refs                       8217606                       # Number of memory references committed
system.cpu0.commit.loads                      5135849                       # Number of loads committed
system.cpu0.commit.membars                         40                       # Number of memory barriers committed
system.cpu0.commit.branches                   5148204                       # Number of branches committed
system.cpu0.commit.vec_insts                        0                       # Number of committed Vector instructions.
system.cpu0.commit.fp_insts                   1195005                       # Number of committed floating point instructions.
system.cpu0.commit.int_insts                 45662153                       # Number of committed integer instructions.
system.cpu0.commit.function_calls              446852                       # Number of function calls committed.
system.cpu0.commit.op_class_0::No_OpClass       321609      0.69%      0.69% # Class of committed instruction
system.cpu0.commit.op_class_0::IntAlu        36382643     77.80%     78.49% # Class of committed instruction
system.cpu0.commit.op_class_0::IntMult             98      0.00%     78.49% # Class of committed instruction
system.cpu0.commit.op_class_0::IntDiv          954346      2.04%     80.53% # Class of committed instruction
system.cpu0.commit.op_class_0::FloatAdd        886590      1.90%     82.43% # Class of committed instruction
system.cpu0.commit.op_class_0::FloatCmp             0      0.00%     82.43% # Class of committed instruction
system.cpu0.commit.op_class_0::FloatCvt             0      0.00%     82.43% # Class of committed instruction
system.cpu0.commit.op_class_0::FloatMult            0      0.00%     82.43% # Class of committed instruction
system.cpu0.commit.op_class_0::FloatMultAcc            0      0.00%     82.43% # Class of committed instruction
system.cpu0.commit.op_class_0::FloatDiv             0      0.00%     82.43% # Class of committed instruction
system.cpu0.commit.op_class_0::FloatMisc            0      0.00%     82.43% # Class of committed instruction
system.cpu0.commit.op_class_0::FloatSqrt            0      0.00%     82.43% # Class of committed instruction
system.cpu0.commit.op_class_0::SimdAdd              0      0.00%     82.43% # Class of committed instruction
system.cpu0.commit.op_class_0::SimdAddAcc            0      0.00%     82.43% # Class of committed instruction
system.cpu0.commit.op_class_0::SimdAlu              0      0.00%     82.43% # Class of committed instruction
system.cpu0.commit.op_class_0::SimdCmp              0      0.00%     82.43% # Class of committed instruction
system.cpu0.commit.op_class_0::SimdCvt              0      0.00%     82.43% # Class of committed instruction
system.cpu0.commit.op_class_0::SimdMisc             0      0.00%     82.43% # Class of committed instruction
system.cpu0.commit.op_class_0::SimdMult             0      0.00%     82.43% # Class of committed instruction
system.cpu0.commit.op_class_0::SimdMultAcc            0      0.00%     82.43% # Class of committed instruction
system.cpu0.commit.op_class_0::SimdShift            0      0.00%     82.43% # Class of committed instruction
system.cpu0.commit.op_class_0::SimdShiftAcc            0      0.00%     82.43% # Class of committed instruction
system.cpu0.commit.op_class_0::SimdSqrt             0      0.00%     82.43% # Class of committed instruction
system.cpu0.commit.op_class_0::SimdFloatAdd            0      0.00%     82.43% # Class of committed instruction
system.cpu0.commit.op_class_0::SimdFloatAlu            0      0.00%     82.43% # Class of committed instruction
system.cpu0.commit.op_class_0::SimdFloatCmp            0      0.00%     82.43% # Class of committed instruction
system.cpu0.commit.op_class_0::SimdFloatCvt            0      0.00%     82.43% # Class of committed instruction
system.cpu0.commit.op_class_0::SimdFloatDiv            0      0.00%     82.43% # Class of committed instruction
system.cpu0.commit.op_class_0::SimdFloatMisc            0      0.00%     82.43% # Class of committed instruction
system.cpu0.commit.op_class_0::SimdFloatMult            0      0.00%     82.43% # Class of committed instruction
system.cpu0.commit.op_class_0::SimdFloatMultAcc            0      0.00%     82.43% # Class of committed instruction
system.cpu0.commit.op_class_0::SimdFloatSqrt            0      0.00%     82.43% # Class of committed instruction
system.cpu0.commit.op_class_0::MemRead        4942350     10.57%     93.00% # Class of committed instruction
system.cpu0.commit.op_class_0::MemWrite       2992292      6.40%     99.39% # Class of committed instruction
system.cpu0.commit.op_class_0::FloatMemRead       193499      0.41%     99.81% # Class of committed instruction
system.cpu0.commit.op_class_0::FloatMemWrite        89465      0.19%    100.00% # Class of committed instruction
system.cpu0.commit.op_class_0::IprAccess            0      0.00%    100.00% # Class of committed instruction
system.cpu0.commit.op_class_0::InstPrefetch            0      0.00%    100.00% # Class of committed instruction
system.cpu0.commit.op_class_0::total         46762892                       # Class of committed instruction
system.cpu0.commit.bw_lim_events              3155068                       # number cycles where commit BW limit reached
system.cpu0.rob.rob_reads                    74338245                       # The number of ROB reads
system.cpu0.rob.rob_writes                   94121989                       # The number of ROB writes
system.cpu0.timesIdled                            443                       # Number of times that the entire CPU went into an idle state and unscheduled itself
system.cpu0.idleCycles                          38110                       # Total number of cycles that the CPU has spent unscheduled due to idling
system.cpu0.committedInsts                   22186205                       # Number of Instructions Simulated
system.cpu0.committedOps                     46762892                       # Number of Ops (including micro ops) Simulated
system.cpu0.cpi                              1.376292                       # CPI: Cycles Per Instruction
system.cpu0.cpi_total                        1.376292                       # CPI: Total CPI of All Threads
system.cpu0.ipc                              0.726590                       # IPC: Instructions Per Cycle
system.cpu0.ipc_total                        0.726590                       # IPC: Total IPC of All Threads
system.cpu0.int_regfile_reads                69823414                       # number of integer regfile reads
system.cpu0.int_regfile_writes               39514032                       # number of integer regfile writes
system.cpu0.fp_regfile_reads                  1990594                       # number of floating regfile reads
system.cpu0.fp_regfile_writes                  982480                       # number of floating regfile writes
system.cpu0.cc_regfile_reads                 29661968                       # number of cc regfile reads
system.cpu0.cc_regfile_writes                17990167                       # number of cc regfile writes
system.cpu0.misc_regfile_reads               17971267                       # number of misc regfile reads
system.cpu0.dcache.tags.pwrStateResidencyTicks::UNDEFINED  15267344125                       # Cumulative time (in ticks) in various power states
system.cpu0.dcache.tags.replacements           294968                       # number of replacements
system.cpu0.dcache.tags.tagsinuse                1024                       # Cycle average of tags in use
system.cpu0.dcache.tags.total_refs           13071725                       # Total number of references to valid blocks.
system.cpu0.dcache.tags.sampled_refs           294968                       # Sample count of references to valid blocks.
system.cpu0.dcache.tags.avg_refs            44.315739                       # Average number of references to valid blocks.
system.cpu0.dcache.tags.warmup_cycle                0                       # Cycle when the warmup percentage was hit.
system.cpu0.dcache.tags.occ_blocks::cpu0.data         1024                       # Average occupied blocks per requestor
system.cpu0.dcache.tags.occ_percent::cpu0.data            1                       # Average percentage of cache occupancy
system.cpu0.dcache.tags.occ_percent::total            1                       # Average percentage of cache occupancy
system.cpu0.dcache.tags.occ_task_id_blocks::1024         1024                       # Occupied blocks per task id
system.cpu0.dcache.tags.age_task_id_blocks_1024::0          323                       # Occupied blocks per task id
system.cpu0.dcache.tags.age_task_id_blocks_1024::1          700                       # Occupied blocks per task id
system.cpu0.dcache.tags.age_task_id_blocks_1024::2            1                       # Occupied blocks per task id
system.cpu0.dcache.tags.occ_task_id_percent::1024            1                       # Percentage of cache occupancy per task id
system.cpu0.dcache.tags.tag_accesses         31452680                       # Number of tag accesses
system.cpu0.dcache.tags.data_accesses        31452680                       # Number of data accesses
system.cpu0.dcache.pwrStateResidencyTicks::UNDEFINED  15267344125                       # Cumulative time (in ticks) in various power states
system.cpu0.dcache.ReadReq_hits::cpu0.data      4524520                       # number of ReadReq hits
system.cpu0.dcache.ReadReq_hits::total        4524520                       # number of ReadReq hits
system.cpu0.dcache.WriteReq_hits::cpu0.data      2899836                       # number of WriteReq hits
system.cpu0.dcache.WriteReq_hits::total       2899836                       # number of WriteReq hits
system.cpu0.dcache.demand_hits::cpu0.data      7424356                       # number of demand (read+write) hits
system.cpu0.dcache.demand_hits::total         7424356                       # number of demand (read+write) hits
system.cpu0.dcache.overall_hits::cpu0.data      7424356                       # number of overall hits
system.cpu0.dcache.overall_hits::total        7424356                       # number of overall hits
system.cpu0.dcache.ReadReq_misses::cpu0.data       183162                       # number of ReadReq misses
system.cpu0.dcache.ReadReq_misses::total       183162                       # number of ReadReq misses
system.cpu0.dcache.WriteReq_misses::cpu0.data       181910                       # number of WriteReq misses
system.cpu0.dcache.WriteReq_misses::total       181910                       # number of WriteReq misses
system.cpu0.dcache.demand_misses::cpu0.data       365072                       # number of demand (read+write) misses
system.cpu0.dcache.demand_misses::total        365072                       # number of demand (read+write) misses
system.cpu0.dcache.overall_misses::cpu0.data       365072                       # number of overall misses
system.cpu0.dcache.overall_misses::total       365072                       # number of overall misses
system.cpu0.dcache.ReadReq_miss_latency::cpu0.data  13968883000                       # number of ReadReq miss cycles
system.cpu0.dcache.ReadReq_miss_latency::total  13968883000                       # number of ReadReq miss cycles
system.cpu0.dcache.WriteReq_miss_latency::cpu0.data   5037922498                       # number of WriteReq miss cycles
system.cpu0.dcache.WriteReq_miss_latency::total   5037922498                       # number of WriteReq miss cycles
system.cpu0.dcache.demand_miss_latency::cpu0.data  19006805498                       # number of demand (read+write) miss cycles
system.cpu0.dcache.demand_miss_latency::total  19006805498                       # number of demand (read+write) miss cycles
system.cpu0.dcache.overall_miss_latency::cpu0.data  19006805498                       # number of overall miss cycles
system.cpu0.dcache.overall_miss_latency::total  19006805498                       # number of overall miss cycles
system.cpu0.dcache.ReadReq_accesses::cpu0.data      4707682                       # number of ReadReq accesses(hits+misses)
system.cpu0.dcache.ReadReq_accesses::total      4707682                       # number of ReadReq accesses(hits+misses)
system.cpu0.dcache.WriteReq_accesses::cpu0.data      3081746                       # number of WriteReq accesses(hits+misses)
system.cpu0.dcache.WriteReq_accesses::total      3081746                       # number of WriteReq accesses(hits+misses)
system.cpu0.dcache.demand_accesses::cpu0.data      7789428                       # number of demand (read+write) accesses
system.cpu0.dcache.demand_accesses::total      7789428                       # number of demand (read+write) accesses
system.cpu0.dcache.overall_accesses::cpu0.data      7789428                       # number of overall (read+write) accesses
system.cpu0.dcache.overall_accesses::total      7789428                       # number of overall (read+write) accesses
system.cpu0.dcache.ReadReq_miss_rate::cpu0.data     0.038907                       # miss rate for ReadReq accesses
system.cpu0.dcache.ReadReq_miss_rate::total     0.038907                       # miss rate for ReadReq accesses
system.cpu0.dcache.WriteReq_miss_rate::cpu0.data     0.059028                       # miss rate for WriteReq accesses
system.cpu0.dcache.WriteReq_miss_rate::total     0.059028                       # miss rate for WriteReq accesses
system.cpu0.dcache.demand_miss_rate::cpu0.data     0.046868                       # miss rate for demand accesses
system.cpu0.dcache.demand_miss_rate::total     0.046868                       # miss rate for demand accesses
system.cpu0.dcache.overall_miss_rate::cpu0.data     0.046868                       # miss rate for overall accesses
system.cpu0.dcache.overall_miss_rate::total     0.046868                       # miss rate for overall accesses
system.cpu0.dcache.ReadReq_avg_miss_latency::cpu0.data 76265.180551                       # average ReadReq miss latency
system.cpu0.dcache.ReadReq_avg_miss_latency::total 76265.180551                       # average ReadReq miss latency
system.cpu0.dcache.WriteReq_avg_miss_latency::cpu0.data 27694.587972                       # average WriteReq miss latency
system.cpu0.dcache.WriteReq_avg_miss_latency::total 27694.587972                       # average WriteReq miss latency
system.cpu0.dcache.demand_avg_miss_latency::cpu0.data 52063.169725                       # average overall miss latency
[...]
system.l2.ReadCleanReq_avg_miss_latency::total        99861                       # average ReadCleanReq miss latency
system.l2.ReadSharedReq_avg_miss_latency::cpu0.data 82335.964630                       # average ReadSharedReq miss latency
system.l2.ReadSharedReq_avg_miss_latency::total 82335.964630                       # average ReadSharedReq miss latency
system.l2.demand_avg_miss_latency::cpu0.inst        99861                       # average overall miss latency
system.l2.demand_avg_miss_latency::cpu0.data 81568.216992                       # average overall miss latency
system.l2.demand_avg_miss_latency::total 81628.769472                       # average overall miss latency
system.l2.overall_avg_miss_latency::cpu0.inst        99861                       # average overall miss latency
system.l2.overall_avg_miss_latency::cpu0.data 81568.216992                       # average overall miss latency
system.l2.overall_avg_miss_latency::total 81628.769472                       # average overall miss latency
system.l2.blocked_cycles::no_mshrs                  0                       # number of cycles access was blocked
system.l2.blocked_cycles::no_targets                0                       # number of cycles access was blocked
system.l2.blocked::no_mshrs                         0                       # number of cycles access was blocked
system.l2.blocked::no_targets                       0                       # number of cycles access was blocked
system.l2.avg_blocked_cycles::no_mshrs            nan                       # average number of cycles each access was blocked
system.l2.avg_blocked_cycles::no_targets          nan                       # average number of cycles each access was blocked
system.l2.writebacks::writebacks                 1321                       # number of writebacks
system.l2.writebacks::total                      1321                       # number of writebacks
system.l2.CleanEvict_mshr_misses::writebacks            8                       # number of CleanEvict MSHR misses
system.l2.CleanEvict_mshr_misses::total             8                       # number of CleanEvict MSHR misses
system.l2.UpgradeReq_mshr_misses::cpu0.data            4                       # number of UpgradeReq MSHR misses
system.l2.UpgradeReq_mshr_misses::total             4                       # number of UpgradeReq MSHR misses
system.l2.ReadExReq_mshr_misses::cpu0.data        38817                       # number of ReadExReq MSHR misses
system.l2.ReadExReq_mshr_misses::total          38817                       # number of ReadExReq MSHR misses
system.l2.ReadCleanReq_mshr_misses::cpu0.inst          500                       # number of ReadCleanReq MSHR misses
system.l2.ReadCleanReq_mshr_misses::total          500                       # number of ReadCleanReq MSHR misses
system.l2.ReadSharedReq_mshr_misses::cpu0.data       111732                       # number of ReadSharedReq MSHR misses
system.l2.ReadSharedReq_mshr_misses::total       111732                       # number of ReadSharedReq MSHR misses
system.l2.demand_mshr_misses::cpu0.inst           500                       # number of demand (read+write) MSHR misses
system.l2.demand_mshr_misses::cpu0.data        150549                       # number of demand (read+write) MSHR misses
system.l2.demand_mshr_misses::total            151049                       # number of demand (read+write) MSHR misses
system.l2.overall_mshr_misses::cpu0.inst          500                       # number of overall MSHR misses
system.l2.overall_mshr_misses::cpu0.data       150549                       # number of overall MSHR misses
system.l2.overall_mshr_misses::total           151049                       # number of overall MSHR misses
system.l2.UpgradeReq_mshr_miss_latency::cpu0.data        80000                       # number of UpgradeReq MSHR miss cycles
system.l2.UpgradeReq_mshr_miss_latency::total        80000                       # number of UpgradeReq MSHR miss cycles
system.l2.ReadExReq_mshr_miss_latency::cpu0.data   2692281500                       # number of ReadExReq MSHR miss cycles
system.l2.ReadExReq_mshr_miss_latency::total   2692281500                       # number of ReadExReq MSHR miss cycles
system.l2.ReadCleanReq_mshr_miss_latency::cpu0.inst     44930500                       # number of ReadCleanReq MSHR miss cycles
system.l2.ReadCleanReq_mshr_miss_latency::total     44930500                       # number of ReadCleanReq MSHR miss cycles
system.l2.ReadSharedReq_mshr_miss_latency::cpu0.data   8082242000                       # number of ReadSharedReq MSHR miss cycles
system.l2.ReadSharedReq_mshr_miss_latency::total   8082242000                       # number of ReadSharedReq MSHR miss cycles
system.l2.demand_mshr_miss_latency::cpu0.inst     44930500                       # number of demand (read+write) MSHR miss cycles
system.l2.demand_mshr_miss_latency::cpu0.data  10774523500                       # number of demand (read+write) MSHR miss cycles
system.l2.demand_mshr_miss_latency::total  10819454000                       # number of demand (read+write) MSHR miss cycles
system.l2.overall_mshr_miss_latency::cpu0.inst     44930500                       # number of overall MSHR miss cycles
system.l2.overall_mshr_miss_latency::cpu0.data  10774523500                       # number of overall MSHR miss cycles
system.l2.overall_mshr_miss_latency::total  10819454000                       # number of overall MSHR miss cycles
system.l2.CleanEvict_mshr_miss_rate::writebacks          inf                       # mshr miss rate for CleanEvict accesses
system.l2.CleanEvict_mshr_miss_rate::total          inf                       # mshr miss rate for CleanEvict accesses
system.l2.UpgradeReq_mshr_miss_rate::cpu0.data     0.666667                       # mshr miss rate for UpgradeReq accesses
system.l2.UpgradeReq_mshr_miss_rate::total     0.666667                       # mshr miss rate for UpgradeReq accesses
system.l2.ReadExReq_mshr_miss_rate::cpu0.data     0.213396                       # mshr miss rate for ReadExReq accesses
system.l2.ReadExReq_mshr_miss_rate::total     0.213396                       # mshr miss rate for ReadExReq accesses
system.l2.ReadCleanReq_mshr_miss_rate::cpu0.inst     0.451264                       # mshr miss rate for ReadCleanReq accesses
system.l2.ReadCleanReq_mshr_miss_rate::total     0.451264                       # mshr miss rate for ReadCleanReq accesses
system.l2.ReadSharedReq_mshr_miss_rate::cpu0.data     0.988193                       # mshr miss rate for ReadSharedReq accesses
system.l2.ReadSharedReq_mshr_miss_rate::total     0.988193                       # mshr miss rate for ReadSharedReq accesses
system.l2.demand_mshr_miss_rate::cpu0.inst     0.451264                       # mshr miss rate for demand accesses
system.l2.demand_mshr_miss_rate::cpu0.data     0.510391                       # mshr miss rate for demand accesses
system.l2.demand_mshr_miss_rate::total       0.510170                       # mshr miss rate for demand accesses
system.l2.overall_mshr_miss_rate::cpu0.inst     0.451264                       # mshr miss rate for overall accesses
system.l2.overall_mshr_miss_rate::cpu0.data     0.510391                       # mshr miss rate for overall accesses
system.l2.overall_mshr_miss_rate::total      0.510170                       # mshr miss rate for overall accesses
system.l2.UpgradeReq_avg_mshr_miss_latency::cpu0.data        20000                       # average UpgradeReq mshr miss latency
system.l2.UpgradeReq_avg_mshr_miss_latency::total        20000                       # average UpgradeReq mshr miss latency
system.l2.ReadExReq_avg_mshr_miss_latency::cpu0.data 69358.309504                       # average ReadExReq mshr miss latency
system.l2.ReadExReq_avg_mshr_miss_latency::total 69358.309504                       # average ReadExReq mshr miss latency
system.l2.ReadCleanReq_avg_mshr_miss_latency::cpu0.inst        89861                       # average ReadCleanReq mshr miss latency
system.l2.ReadCleanReq_avg_mshr_miss_latency::total        89861                       # average ReadCleanReq mshr miss latency
system.l2.ReadSharedReq_avg_mshr_miss_latency::cpu0.data 72335.964630                       # average ReadSharedReq mshr miss latency
system.l2.ReadSharedReq_avg_mshr_miss_latency::total 72335.964630                       # average ReadSharedReq mshr miss latency
system.l2.demand_avg_mshr_miss_latency::cpu0.inst        89861                       # average overall mshr miss latency
system.l2.demand_avg_mshr_miss_latency::cpu0.data 71568.216992                       # average overall mshr miss latency
system.l2.demand_avg_mshr_miss_latency::total 71628.769472                       # average overall mshr miss latency
system.l2.overall_avg_mshr_miss_latency::cpu0.inst        89861                       # average overall mshr miss latency
system.l2.overall_avg_mshr_miss_latency::cpu0.data 71568.216992                       # average overall mshr miss latency
system.l2.overall_avg_mshr_miss_latency::total 71628.769472                       # average overall mshr miss latency
system.membus.snoop_filter.tot_requests        302629                       # Total number of requests made to the snoop filter.
system.membus.snoop_filter.hit_single_requests       151607                       # Number of requests hitting in the snoop filter with a single holder of the requested data.
system.membus.snoop_filter.hit_multi_requests            0                       # Number of requests hitting in the snoop filter with multiple (>1) holders of the requested data.
system.membus.snoop_filter.tot_snoops               0                       # Total number of snoops made to the snoop filter.
system.membus.snoop_filter.hit_single_snoops            0                       # Number of snoops hitting in the snoop filter with a single holder of the requested data.
system.membus.snoop_filter.hit_multi_snoops            0                       # Number of snoops hitting in the snoop filter with multiple (>1) holders of the requested data.
system.membus.pwrStateResidencyTicks::UNDEFINED  15267344125                       # Cumulative time (in ticks) in various power states
system.membus.trans_dist::ReadResp             112232                       # Transaction distribution
system.membus.trans_dist::WritebackDirty         1321                       # Transaction distribution
system.membus.trans_dist::CleanEvict           150255                       # Transaction distribution
system.membus.trans_dist::UpgradeReq                4                       # Transaction distribution
system.membus.trans_dist::ReadExReq             38817                       # Transaction distribution
system.membus.trans_dist::ReadExResp            38817                       # Transaction distribution
system.membus.trans_dist::ReadSharedReq        112232                       # Transaction distribution
system.membus.pkt_count_system.l2.mem_side::system.mem_ctrls.port       453678                       # Packet count per connected master and slave (bytes)
system.membus.pkt_count_system.l2.mem_side::total       453678                       # Packet count per connected master and slave (bytes)
system.membus.pkt_count::total                 453678                       # Packet count per connected master and slave (bytes)
system.membus.pkt_size_system.l2.mem_side::system.mem_ctrls.port      9751680                       # Cumulative packet size per connected master and slave (bytes)
system.membus.pkt_size_system.l2.mem_side::total      9751680                       # Cumulative packet size per connected master and slave (bytes)
system.membus.pkt_size::total                 9751680                       # Cumulative packet size per connected master and slave (bytes)
system.membus.snoops                                0                       # Total snoops (count)
system.membus.snoopTraffic                          0                       # Total snoop traffic (bytes)
system.membus.snoop_fanout::samples            151053                       # Request fanout histogram
system.membus.snoop_fanout::mean                    0                       # Request fanout histogram
system.membus.snoop_fanout::stdev                   0                       # Request fanout histogram
system.membus.snoop_fanout::underflows              0      0.00%      0.00% # Request fanout histogram
system.membus.snoop_fanout::0                  151053    100.00%    100.00% # Request fanout histogram
system.membus.snoop_fanout::1                       0      0.00%    100.00% # Request fanout histogram
system.membus.snoop_fanout::overflows               0      0.00%    100.00% # Request fanout histogram
system.membus.snoop_fanout::min_value               0                       # Request fanout histogram
system.membus.snoop_fanout::max_value               0                       # Request fanout histogram
system.membus.snoop_fanout::total              151053                       # Request fanout histogram
system.membus.reqLayer8.occupancy           316040000                       # Layer occupancy (ticks)
system.membus.reqLayer8.utilization               2.1                       # Layer utilization (%)
system.membus.respLayer1.occupancy          784367250                       # Layer occupancy (ticks)
system.membus.respLayer1.utilization              5.1                       # Layer utilization (%)
system.tol2bus.snoop_filter.tot_requests       592155                       # Total number of requests made to the snoop filter.
system.tol2bus.snoop_filter.hit_single_requests       296071                       # Number of requests hitting in the snoop filter with a single holder of the requested data.
system.tol2bus.snoop_filter.hit_multi_requests          115                       # Number of requests hitting in the snoop filter with multiple (>1) holders of the requested data.
system.tol2bus.snoop_filter.tot_snoops             12                       # Total number of snoops made to the snoop filter.
system.tol2bus.snoop_filter.hit_single_snoops           11                       # Number of snoops hitting in the snoop filter with a single holder of the requested data.
system.tol2bus.snoop_filter.hit_multi_snoops            1                       # Number of snoops hitting in the snoop filter with multiple (>1) holders of the requested data.
system.tol2bus.pwrStateResidencyTicks::UNDEFINED  15267344125                       # Cumulative time (in ticks) in various power states
system.tol2bus.trans_dist::ReadResp            114177                       # Transaction distribution
system.tol2bus.trans_dist::WritebackDirty       182829                       # Transaction distribution
system.tol2bus.trans_dist::WritebackClean         1103                       # Transaction distribution
system.tol2bus.trans_dist::CleanEvict          263718                       # Transaction distribution
system.tol2bus.trans_dist::UpgradeReq               6                       # Transaction distribution
system.tol2bus.trans_dist::UpgradeResp              6                       # Transaction distribution
system.tol2bus.trans_dist::ReadExReq           181901                       # Transaction distribution
system.tol2bus.trans_dist::ReadExResp          181901                       # Transaction distribution
system.tol2bus.trans_dist::ReadCleanReq          1110                       # Transaction distribution
system.tol2bus.trans_dist::ReadSharedReq       113067                       # Transaction distribution
system.tol2bus.pkt_count_system.cpu0.icache.mem_side::system.l2.cpu_side         3321                       # Packet count per connected master and slave (bytes)
system.tol2bus.pkt_count_system.cpu0.dcache.mem_side::system.l2.cpu_side       884916                       # Packet count per connected master and slave (bytes)
system.tol2bus.pkt_count::total                888237                       # Packet count per connected master and slave (bytes)
system.tol2bus.pkt_size_system.cpu0.icache.mem_side::system.l2.cpu_side       141504                       # Cumulative packet size per connected master and slave (bytes)
system.tol2bus.pkt_size_system.cpu0.dcache.mem_side::system.l2.cpu_side     30494464                       # Cumulative packet size per connected master and slave (bytes)
system.tol2bus.pkt_size::total               30635968                       # Cumulative packet size per connected master and slave (bytes)
system.tol2bus.snoops                          151581                       # Total snoops (count)
system.tol2bus.snoopTraffic                     84672                       # Total snoop traffic (bytes)
system.tol2bus.snoop_fanout::samples           447663                       # Request fanout histogram
system.tol2bus.snoop_fanout::mean            0.000279                       # Request fanout histogram
system.tol2bus.snoop_fanout::stdev           0.016841                       # Request fanout histogram
system.tol2bus.snoop_fanout::underflows             0      0.00%      0.00% # Request fanout histogram
system.tol2bus.snoop_fanout::0                 447539     99.97%     99.97% # Request fanout histogram
system.tol2bus.snoop_fanout::1                    123      0.03%    100.00% # Request fanout histogram
system.tol2bus.snoop_fanout::2                      1      0.00%    100.00% # Request fanout histogram
system.tol2bus.snoop_fanout::3                      0      0.00%    100.00% # Request fanout histogram
system.tol2bus.snoop_fanout::4                      0      0.00%    100.00% # Request fanout histogram
system.tol2bus.snoop_fanout::5                      0      0.00%    100.00% # Request fanout histogram
system.tol2bus.snoop_fanout::6                      0      0.00%    100.00% # Request fanout histogram
system.tol2bus.snoop_fanout::7                      0      0.00%    100.00% # Request fanout histogram
system.tol2bus.snoop_fanout::8                      0      0.00%    100.00% # Request fanout histogram
system.tol2bus.snoop_fanout::9                      0      0.00%    100.00% # Request fanout histogram
system.tol2bus.snoop_fanout::10                     0      0.00%    100.00% # Request fanout histogram
system.tol2bus.snoop_fanout::11                     0      0.00%    100.00% # Request fanout histogram
system.tol2bus.snoop_fanout::12                     0      0.00%    100.00% # Request fanout histogram
system.tol2bus.snoop_fanout::13                     0      0.00%    100.00% # Request fanout histogram
system.tol2bus.snoop_fanout::14                     0      0.00%    100.00% # Request fanout histogram
system.tol2bus.snoop_fanout::15                     0      0.00%    100.00% # Request fanout histogram
system.tol2bus.snoop_fanout::16                     0      0.00%    100.00% # Request fanout histogram
system.tol2bus.snoop_fanout::overflows              0      0.00%    100.00% # Request fanout histogram
system.tol2bus.snoop_fanout::min_value              0                       # Request fanout histogram
system.tol2bus.snoop_fanout::max_value              2                       # Request fanout histogram
system.tol2bus.snoop_fanout::total             447663                       # Request fanout histogram
system.tol2bus.reqLayer0.occupancy          478688500                       # Layer occupancy (ticks)
system.tol2bus.reqLayer0.utilization              3.1                       # Layer utilization (%)
system.tol2bus.respLayer0.occupancy           1667495                       # Layer occupancy (ticks)
system.tol2bus.respLayer0.utilization             0.0                       # Layer utilization (%)
system.tol2bus.respLayer1.occupancy         442455000                       # Layer occupancy (ticks)
system.tol2bus.respLayer1.utilization             2.9                       # Layer utilization (%)

---------- End Simulation Statistics   ----------
