
---------- Begin Simulation Statistics ----------
sim_seconds                                  0.015267                       # Number of seconds simulated
sim_ticks                                 15267344125                       # Number of ticks simulated
final_tick                               5893194832250                       # Number of ticks from beginning of simulation (restored from checkpoints and never reset)
sim_freq                                 1000000000000                       # Frequency of simulated ticks
host_inst_rate                               75231379                       # Simulator instruction rate (inst/s)
host_op_rate                                140009879                       # Simulator op (including micro ops) rate (op/s)
host_tick_rate                              194376300                       # Simulator tick rate (ticks/s)
host_mem_usage                                2332656                       # Number of bytes of host memory used
host_seconds                                    78.55                       # Real time elapsed on the host
sim_insts                                  5909069557                       # Number of instructions simulated
sim_ops                                   10997116252                       # Number of ops (including micro ops) simulated
system.voltage_domain.voltage                       1                       # Voltage in Volts
system.clk_domain.clock                          1000                       # Clock period in ticks
system.mem_ctrls.pwrStateResidencyTicks::UNDEFINED  15267344125                       # Cumulative time (in ticks) in various power states
system.mem_ctrls.bytes_read::cpu0.data       11850048                       # Number of bytes read from this memory
system.mem_ctrls.bytes_read::total           11850048                       # Number of bytes read from this memory
system.mem_ctrls.bytes_written::writebacks        24384                       # Number of bytes written to this memory
system.mem_ctrls.bytes_written::total           24384                       # Number of bytes written to this memory
system.mem_ctrls.num_reads::cpu0.data          185157                       # Number of read requests responded to by this memory
system.mem_ctrls.num_reads::total              185157                       # Number of read requests responded to by this memory
system.mem_ctrls.num_writes::writebacks           381                       # Number of write requests responded to by this memory
system.mem_ctrls.num_writes::total                381                       # Number of write requests responded to by this memory
system.mem_ctrls.bw_read::cpu0.data         776169575                       # Total read bandwidth from this memory (bytes/s)
system.mem_ctrls.bw_read::total             776169575                       # Total read bandwidth from this memory (bytes/s)
system.mem_ctrls.bw_write::writebacks         1597134                       # Write bandwidth from this memory (bytes/s)
system.mem_ctrls.bw_write::total              1597134                       # Write bandwidth from this memory (bytes/s)
system.mem_ctrls.bw_total::writebacks         1597134                       # Total bandwidth to/from this memory (bytes/s)
system.mem_ctrls.bw_total::cpu0.data        776169575                       # Total bandwidth to/from this memory (bytes/s)
system.mem_ctrls.bw_total::total            777766709                       # Total bandwidth to/from this memory (bytes/s)
system.mem_ctrls.readReqs                      185157                       # Number of read requests accepted
system.mem_ctrls.writeReqs                        381                       # Number of write requests accepted
system.mem_ctrls.readBursts                    185157                       # Number of DRAM read bursts, including those serviced by the write queue
system.mem_ctrls.writeBursts                      381                       # Number of DRAM write bursts, including those merged in the write queue
system.mem_ctrls.bytesReadDRAM               11846400                       # Total number of bytes read from DRAM
system.mem_ctrls.bytesReadWrQ                    3648                       # Total number of bytes read from write queue
system.mem_ctrls.bytesWritten                   24704                       # Total number of bytes written to DRAM
system.mem_ctrls.bytesReadSys                11850048                       # Total read bytes from the system interface side
system.mem_ctrls.bytesWrittenSys                24384                       # Total written bytes from the system interface side
system.mem_ctrls.servicedByWrQ                     57                       # Number of DRAM read bursts serviced by the write queue
system.mem_ctrls.mergedWrBursts                     0                       # Number of DRAM write bursts merged with an existing one
system.mem_ctrls.neitherReadNorWriteReqs            0                       # Number of requests that are neither read nor write
system.mem_ctrls.perBankRdBursts::0             11470                       # Per bank write bursts
system.mem_ctrls.perBankRdBursts::1             11435                       # Per bank write bursts
system.mem_ctrls.perBankRdBursts::2             11414                       # Per bank write bursts
system.mem_ctrls.perBankRdBursts::3             11552                       # Per bank write bursts
system.mem_ctrls.perBankRdBursts::4             11334                       # Per bank write bursts
system.mem_ctrls.perBankRdBursts::5             11575                       # Per bank write bursts
system.mem_ctrls.perBankRdBursts::6             11324                       # Per bank write bursts
system.mem_ctrls.perBankRdBursts::7             11521                       # Per bank write bursts
system.mem_ctrls.perBankRdBursts::8             11397                       # Per bank write bursts
system.mem_ctrls.perBankRdBursts::9             11429                       # Per bank write bursts
system.mem_ctrls.perBankRdBursts::10            11547                       # Per bank write bursts
system.mem_ctrls.perBankRdBursts::11            11573                       # Per bank write bursts
system.mem_ctrls.perBankRdBursts::12            12255                       # Per bank write bursts
system.mem_ctrls.perBankRdBursts::13            11841                       # Per bank write bursts
system.mem_ctrls.perBankRdBursts::14            11725                       # Per bank write bursts
system.mem_ctrls.perBankRdBursts::15            11708                       # Per bank write bursts
system.mem_ctrls.perBankWrBursts::0                 0                       # Per bank write bursts
system.mem_ctrls.perBankWrBursts::1                 0                       # Per bank write bursts
system.mem_ctrls.perBankWrBursts::2                 0                       # Per bank write bursts
system.mem_ctrls.perBankWrBursts::3                 0                       # Per bank write bursts
system.mem_ctrls.perBankWrBursts::4                 0                       # Per bank write bursts
system.mem_ctrls.perBankWrBursts::5                 0                       # Per bank write bursts
system.mem_ctrls.perBankWrBursts::6                 0                       # Per bank write bursts
system.mem_ctrls.perBankWrBursts::7                 0                       # Per bank write bursts
system.mem_ctrls.perBankWrBursts::8                 0                       # Per bank write bursts
system.mem_ctrls.perBankWrBursts::9                 0                       # Per bank write bursts
system.mem_ctrls.perBankWrBursts::10                0                       # Per bank write bursts
system.mem_ctrls.perBankWrBursts::11               57                       # Per bank write bursts
system.mem_ctrls.perBankWrBursts::12              240                       # Per bank write bursts
system.mem_ctrls.perBankWrBursts::13               63                       # Per bank write bursts
system.mem_ctrls.perBankWrBursts::14                0                       # Per bank write bursts
system.mem_ctrls.perBankWrBursts::15               26                       # Per bank write bursts
system.mem_ctrls.numRdRetry                         0                       # Number of times read queue was full causing retry
system.mem_ctrls.numWrRetry                         0                       # Number of times write queue was full causing retry
system.mem_ctrls.totGap                   15267346500                       # Total gap between requests
system.mem_ctrls.readPktSize::0                     0                       # Read request sizes (log2)
system.mem_ctrls.readPktSize::1                     0                       # Read request sizes (log2)
system.mem_ctrls.readPktSize::2                     0                       # Read request sizes (log2)
system.mem_ctrls.readPktSize::3                     0                       # Read request sizes (log2)
system.mem_ctrls.readPktSize::4                     0                       # Read request sizes (log2)
system.mem_ctrls.readPktSize::5                     0                       # Read request sizes (log2)
system.mem_ctrls.readPktSize::6                185157                       # Read request sizes (log2)
system.mem_ctrls.writePktSize::0                    0                       # Write request sizes (log2)
system.mem_ctrls.writePktSize::1                    0                       # Write request sizes (log2)
system.mem_ctrls.writePktSize::2                    0                       # Write request sizes (log2)
system.mem_ctrls.writePktSize::3                    0                       # Write request sizes (log2)
system.mem_ctrls.writePktSize::4                    0                       # Write request sizes (log2)
system.mem_ctrls.writePktSize::5                    0                       # Write request sizes (log2)
system.mem_ctrls.writePktSize::6                  381                       # Write request sizes (log2)
system.mem_ctrls.rdQLenPdf::0                  140551                       # What read queue length does an incoming req see
system.mem_ctrls.rdQLenPdf::1                   41415                       # What read queue length does an incoming req see
system.mem_ctrls.rdQLenPdf::2                    3068                       # What read queue length does an incoming req see
system.mem_ctrls.rdQLenPdf::3                      66                       # What read queue length does an incoming req see
system.mem_ctrls.rdQLenPdf::4                       0                       # What read queue length does an incoming req see
system.mem_ctrls.rdQLenPdf::5                       0                       # What read queue length does an incoming req see
system.mem_ctrls.rdQLenPdf::6                       0                       # What read queue length does an incoming req see
system.mem_ctrls.rdQLenPdf::7                       0                       # What read queue length does an incoming req see
system.mem_ctrls.rdQLenPdf::8                       0                       # What read queue length does an incoming req see
system.mem_ctrls.rdQLenPdf::9                       0                       # What read queue length does an incoming req see
system.mem_ctrls.rdQLenPdf::10                      0                       # What read queue length does an incoming req see
system.mem_ctrls.rdQLenPdf::11                      0                       # What read queue length does an incoming req see
system.mem_ctrls.rdQLenPdf::12                      0                       # What read queue length does an incoming req see
system.mem_ctrls.rdQLenPdf::13                      0                       # What read queue length does an incoming req see
system.mem_ctrls.rdQLenPdf::14                      0                       # What read queue length does an incoming req see
system.mem_ctrls.rdQLenPdf::15                      0                       # What read queue length does an incoming req see
system.mem_ctrls.rdQLenPdf::16                      0                       # What read queue length does an incoming req see
system.mem_ctrls.rdQLenPdf::17                      0                       # What read queue length does an incoming req see
system.mem_ctrls.rdQLenPdf::18                      0                       # What read queue length does an incoming req see
system.mem_ctrls.rdQLenPdf::19                      0                       # What read queue length does an incoming req see
system.mem_ctrls.rdQLenPdf::20                      0                       # What read queue length does an incoming req see
system.mem_ctrls.rdQLenPdf::21                      0                       # What read queue length does an incoming req see
system.mem_ctrls.rdQLenPdf::22                      0                       # What read queue length does an incoming req see
system.mem_ctrls.rdQLenPdf::23                      0                       # What read queue length does an incoming req see
system.mem_ctrls.rdQLenPdf::24                      0                       # What read queue length does an incoming req see
system.mem_ctrls.rdQLenPdf::25                      0                       # What read queue length does an incoming req see
system.mem_ctrls.rdQLenPdf::26                      0                       # What read queue length does an incoming req see
system.mem_ctrls.rdQLenPdf::27                      0                       # What read queue length does an incoming req see
system.mem_ctrls.rdQLenPdf::28                      0                       # What read queue length does an incoming req see
system.mem_ctrls.rdQLenPdf::29                      0                       # What read queue length does an incoming req see
system.mem_ctrls.rdQLenPdf::30                      0                       # What read queue length does an incoming req see
system.mem_ctrls.rdQLenPdf::31                      0                       # What read queue length does an incoming req see
system.mem_ctrls.wrQLenPdf::0                       0                       # What write queue length does an incoming req see
system.mem_ctrls.wrQLenPdf::1                       0                       # What write queue length does an incoming req see
system.mem_ctrls.wrQLenPdf::2                       0                       # What write queue length does an incoming req see
system.mem_ctrls.wrQLenPdf::3                       0                       # What write queue length does an incoming req see
system.mem_ctrls.wrQLenPdf::4                       0                       # What write queue length does an incoming req see
system.mem_ctrls.wrQLenPdf::5                       0                       # What write queue length does an incoming req see
system.mem_ctrls.wrQLenPdf::6                       0                       # What write queue length does an incoming req see
system.mem_ctrls.wrQLenPdf::7                       0                       # What write queue length does an incoming req see
system.mem_ctrls.wrQLenPdf::8                       0                       # What write queue length does an incoming req see
system.mem_ctrls.wrQLenPdf::9                       0                       # What write queue length does an incoming req see
system.mem_ctrls.wrQLenPdf::10                      0                       # What write queue length does an incoming req see
system.mem_ctrls.wrQLenPdf::11                      0                       # What write queue length does an incoming req see
system.mem_ctrls.wrQLenPdf::12                      0                       # What write queue length does an incoming req see
system.mem_ctrls.wrQLenPdf::13                      0                       # What write queue length does an incoming req see
system.mem_ctrls.wrQLenPdf::14                      0                       # What write queue length does an incoming req see
system.mem_ctrls.wrQLenPdf::15                      1                       # What write queue length does an incoming req see
system.mem_ctrls.wrQLenPdf::16                      1                       # What write queue length does an incoming req see
system.mem_ctrls.wrQLenPdf::17                     24                       # What write queue length does an incoming req see
system.mem_ctrls.wrQLenPdf::18                     23                       # What write queue length does an incoming req see
system.mem_ctrls.wrQLenPdf::19                     23                       # What write queue length does an incoming req see
system.mem_ctrls.wrQLenPdf::20                     23                       # What write queue length does an incoming req see
system.mem_ctrls.wrQLenPdf::21                     23                       # What write queue length does an incoming req see
system.mem_ctrls.wrQLenPdf::22                     23                       # What write queue length does an incoming req see
system.mem_ctrls.wrQLenPdf::23                     24                       # What write queue length does an incoming req see
system.mem_ctrls.wrQLenPdf::24                     24                       # What write queue length does an incoming req see
system.mem_ctrls.wrQLenPdf::25                     24                       # What write queue length does an incoming req see
system.mem_ctrls.wrQLenPdf::26                     24                       # What write queue length does an incoming req see
system.mem_ctrls.wrQLenPdf::27                     24                       # What write queue length does an incoming req see
system.mem_ctrls.wrQLenPdf::28                     24                       # What write queue length does an incoming req see
system.mem_ctrls.wrQLenPdf::29                     24                       # What write queue length does an incoming req see
system.mem_ctrls.wrQLenPdf::30                     24                       # What write queue length does an incoming req see
system.mem_ctrls.wrQLenPdf::31                     24                       # What write queue length does an incoming req see
system.mem_ctrls.wrQLenPdf::32                     24                       # What write queue length does an incoming req see
system.mem_ctrls.wrQLenPdf::33                      0                       # What write queue length does an incoming req see
system.mem_ctrls.wrQLenPdf::34                      0                       # What write queue length does an incoming req see
system.mem_ctrls.wrQLenPdf::35                      0                       # What write queue length does an incoming req see
system.mem_ctrls.wrQLenPdf::36                      0                       # What write queue length does an incoming req see
system.mem_ctrls.wrQLenPdf::37                      0                       # What write queue length does an incoming req see
system.mem_ctrls.wrQLenPdf::38                      0                       # What write queue length does an incoming req see
system.mem_ctrls.wrQLenPdf::39                      0                       # What write queue length does an incoming req see
system.mem_ctrls.wrQLenPdf::40                      0                       # What write queue length does an incoming req see
system.mem_ctrls.wrQLenPdf::41                      0                       # What write queue length does an incoming req see
system.mem_ctrls.wrQLenPdf::42                      0                       # What write queue length does an incoming req see
system.mem_ctrls.wrQLenPdf::43                      0                       # What write queue length does an incoming req see
system.mem_ctrls.wrQLenPdf::44                      0                       # What write queue length does an incoming req see
system.mem_ctrls.wrQLenPdf::45                      0                       # What write queue length does an incoming req see
system.mem_ctrls.wrQLenPdf::46                      0                       # What write queue length does an incoming req see
system.mem_ctrls.wrQLenPdf::47                      0                       # What write queue length does an incoming req see
system.mem_ctrls.wrQLenPdf::48                      0                       # What write queue length does an incoming req see
system.mem_ctrls.wrQLenPdf::49                      0                       # What write queue length does an incoming req see
system.mem_ctrls.wrQLenPdf::50                      0                       # What write queue length does an incoming req see
system.mem_ctrls.wrQLenPdf::51                      0                       # What write queue length does an incoming req see
system.mem_ctrls.wrQLenPdf::52                      0                       # What write queue length does an incoming req see
system.mem_ctrls.wrQLenPdf::53                      0                       # What write queue length does an incoming req see
system.mem_ctrls.wrQLenPdf::54                      0                       # What write queue length does an incoming req see
system.mem_ctrls.wrQLenPdf::55                      0                       # What write queue length does an incoming req see
system.mem_ctrls.wrQLenPdf::56                      0                       # What write queue length does an incoming req see
system.mem_ctrls.wrQLenPdf::57                      0                       # What write queue length does an incoming req see
system.mem_ctrls.wrQLenPdf::58                      0                       # What write queue length does an incoming req see
system.mem_ctrls.wrQLenPdf::59                      0                       # What write queue length does an incoming req see
system.mem_ctrls.wrQLenPdf::60                      0                       # What write queue length does an incoming req see
system.mem_ctrls.wrQLenPdf::61                      0                       # What write queue length does an incoming req see
system.mem_ctrls.wrQLenPdf::62                      0                       # What write queue length does an incoming req see
system.mem_ctrls.wrQLenPdf::63                      0                       # What write queue length does an incoming req see
system.mem_ctrls.bytesPerActivate::samples        97091                       # Bytes accessed per row activation
system.mem_ctrls.bytesPerActivate::mean    122.267811                       # Bytes accessed per row activation
system.mem_ctrls.bytesPerActivate::gmean   105.405692                       # Bytes accessed per row activation
system.mem_ctrls.bytesPerActivate::stdev    73.566636                       # Bytes accessed per row activation
system.mem_ctrls.bytesPerActivate::0-127        45773     47.14%     47.14% # Bytes accessed per row activation
system.mem_ctrls.bytesPerActivate::128-255        42027     43.29%     90.43% # Bytes accessed per row activation
system.mem_ctrls.bytesPerActivate::256-383         8103      8.35%     98.78% # Bytes accessed per row activation
system.mem_ctrls.bytesPerActivate::384-511         1071      1.10%     99.88% # Bytes accessed per row activation
system.mem_ctrls.bytesPerActivate::512-639           92      0.09%     99.97% # Bytes accessed per row activation
system.mem_ctrls.bytesPerActivate::640-767            9      0.01%     99.98% # Bytes accessed per row activation
system.mem_ctrls.bytesPerActivate::768-895            6      0.01%     99.99% # Bytes accessed per row activation
system.mem_ctrls.bytesPerActivate::896-1023            4      0.00%     99.99% # Bytes accessed per row activation
system.mem_ctrls.bytesPerActivate::1024-1151            6      0.01%    100.00% # Bytes accessed per row activation
system.mem_ctrls.bytesPerActivate::total        97091                       # Bytes accessed per row activation
system.mem_ctrls.rdPerTurnAround::samples           24                       # Reads before turning the bus around for writes
system.mem_ctrls.rdPerTurnAround::mean    7776.625000                       # Reads before turning the bus around for writes
system.mem_ctrls.rdPerTurnAround::gmean   7593.954238                       # Reads before turning the bus around for writes
system.mem_ctrls.rdPerTurnAround::stdev   1798.830558                       # Reads before turning the bus around for writes
system.mem_ctrls.rdPerTurnAround::5120-5631            1      4.17%      4.17% # Reads before turning the bus around for writes
system.mem_ctrls.rdPerTurnAround::5632-6143            2      8.33%     12.50% # Reads before turning the bus around for writes
system.mem_ctrls.rdPerTurnAround::6144-6655            7     29.17%     41.67% # Reads before turning the bus around for writes
system.mem_ctrls.rdPerTurnAround::6656-7167            2      8.33%     50.00% # Reads before turning the bus around for writes
system.mem_ctrls.rdPerTurnAround::7168-7679            1      4.17%     54.17% # Reads before turning the bus around for writes
system.mem_ctrls.rdPerTurnAround::7680-8191            3     12.50%     66.67% # Reads before turning the bus around for writes
system.mem_ctrls.rdPerTurnAround::8192-8703            2      8.33%     75.00% # Reads before turning the bus around for writes
system.mem_ctrls.rdPerTurnAround::8704-9215            1      4.17%     79.17% # Reads before turning the bus around for writes
system.mem_ctrls.rdPerTurnAround::9216-9727            2      8.33%     87.50% # Reads before turning the bus around for writes
system.mem_ctrls.rdPerTurnAround::10240-10751            1      4.17%     91.67% # Reads before turning the bus around for writes
system.mem_ctrls.rdPerTurnAround::11264-11775            1      4.17%     95.83% # Reads before turning the bus around for writes
system.mem_ctrls.rdPerTurnAround::11776-12287            1      4.17%    100.00% # Reads before turning the bus around for writes
system.mem_ctrls.rdPerTurnAround::total            24                       # Reads before turning the bus around for writes
system.mem_ctrls.wrPerTurnAround::samples           24                       # Writes before turning the bus around for reads
system.mem_ctrls.wrPerTurnAround::mean      16.083333                       # Writes before turning the bus around for reads
system.mem_ctrls.wrPerTurnAround::gmean     16.078715                       # Writes before turning the bus around for reads
system.mem_ctrls.wrPerTurnAround::stdev      0.408248                       # Writes before turning the bus around for reads
system.mem_ctrls.wrPerTurnAround::16               23     95.83%     95.83% # Writes before turning the bus around for reads
system.mem_ctrls.wrPerTurnAround::18                1      4.17%    100.00% # Writes before turning the bus around for reads
system.mem_ctrls.wrPerTurnAround::total            24                       # Writes before turning the bus around for reads
system.mem_ctrls.totQLat                   4602509250                       # Total ticks spent queuing
system.mem_ctrls.totMemAccLat              8073134250                       # Total ticks spent from burst creation until serviced by the DRAM
system.mem_ctrls.totBusLat                  925500000                       # Total ticks spent in databus transfers
system.mem_ctrls.avgQLat                     24864.99                       # Average queueing delay per DRAM burst
system.mem_ctrls.avgBusLat                    5000.00                       # Average bus latency per DRAM burst
system.mem_ctrls.avgMemAccLat                43614.99                       # Average memory access latency per DRAM burst
system.mem_ctrls.avgRdBW                       775.93                       # Average DRAM read bandwidth in MiByte/s
system.mem_ctrls.avgWrBW                         1.62                       # Average achieved write bandwidth in MiByte/s
system.mem_ctrls.avgRdBWSys                    776.17                       # Average system read bandwidth in MiByte/s
system.mem_ctrls.avgWrBWSys                      1.60                       # Average system write bandwidth in MiByte/s
system.mem_ctrls.peakBW                      12800.00                       # Theoretical peak bandwidth in MiByte/s
system.mem_ctrls.busUtil                         6.07                       # Data bus utilization in percentage
system.mem_ctrls.busUtilRead                     6.06                       # Data bus utilization in percentage for reads
system.mem_ctrls.busUtilWrite                    0.01                       # Data bus utilization in percentage for writes
system.mem_ctrls.avgRdQLen                       1.31                       # Average read queue length when enqueuing
system.mem_ctrls.avgWrQLen                      25.77                       # Average write queue length when enqueuing
system.mem_ctrls.readRowHits                    88063                       # Number of row buffer hits during reads
system.mem_ctrls.writeRowHits                     334                       # Number of row buffer hits during writes
system.mem_ctrls.readRowHitRate                 47.58                       # Row buffer hit rate for reads
system.mem_ctrls.writeRowHitRate                87.66                       # Row buffer hit rate for writes
system.mem_ctrls.avgGap                      82286.90                       # Average gap between requests
system.mem_ctrls.pageHitRate                    47.66                       # Row buffer hit rate, read and write combined
system.mem_ctrls_0.actEnergy                344105160                       # Energy for activate commands per rank (pJ)
system.mem_ctrls_0.preEnergy                182903820                       # Energy for precharge commands per rank (pJ)
system.mem_ctrls_0.readEnergy               654202500                       # Energy for read commands per rank (pJ)
system.mem_ctrls_0.writeEnergy                      0                       # Energy for write commands per rank (pJ)
system.mem_ctrls_0.refreshEnergy         1205309040.000000                       # Energy for refresh commands per rank (pJ)
system.mem_ctrls_0.actBackEnergy           1569098280                       # Energy for active background per rank (pJ)
system.mem_ctrls_0.preBackEnergy             24297600                       # Energy for precharge background per rank (pJ)
system.mem_ctrls_0.actPowerDownEnergy      5206421040                       # Energy for active power-down per rank (pJ)
system.mem_ctrls_0.prePowerDownEnergy       132661920                       # Energy for precharge power-down per rank (pJ)
system.mem_ctrls_0.selfRefreshEnergy                0                       # Energy for self refresh per rank (pJ)
system.mem_ctrls_0.totalEnergy             9318999360                       # Total energy per rank (pJ)
system.mem_ctrls_0.averagePower            610.387719                       # Core power per rank (mW)
system.mem_ctrls_0.totalIdleTime          11762582125                       # Total Idle time Per DRAM Rank
system.mem_ctrls_0.memoryStateTime::IDLE      9822000                       # Time in different power states
system.mem_ctrls_0.memoryStateTime::REF     509860000                       # Time in different power states
system.mem_ctrls_0.memoryStateTime::SREF            0                       # Time in different power states
system.mem_ctrls_0.memoryStateTime::PRE_PDN    345865750                       # Time in different power states
system.mem_ctrls_0.memoryStateTime::ACT    2985042500                       # Time in different power states
system.mem_ctrls_0.memoryStateTime::ACT_PDN  11416753875                       # Time in different power states
system.mem_ctrls_1.actEnergy                349110300                       # Energy for activate commands per rank (pJ)
system.mem_ctrls_1.preEnergy                185556525                       # Energy for precharge commands per rank (pJ)
system.mem_ctrls_1.readEnergy               667411500                       # Energy for read commands per rank (pJ)
system.mem_ctrls_1.writeEnergy                2014920                       # Energy for write commands per rank (pJ)
system.mem_ctrls_1.refreshEnergy         1205309040.000000                       # Energy for refresh commands per rank (pJ)
system.mem_ctrls_1.actBackEnergy           1594371510                       # Energy for active background per rank (pJ)
system.mem_ctrls_1.preBackEnergy             24321600                       # Energy for precharge background per rank (pJ)
system.mem_ctrls_1.actPowerDownEnergy      5203149240                       # Energy for active power-down per rank (pJ)
system.mem_ctrls_1.prePowerDownEnergy       110548320                       # Energy for precharge power-down per rank (pJ)
system.mem_ctrls_1.selfRefreshEnergy          2778540                       # Energy for self refresh per rank (pJ)
system.mem_ctrls_1.totalEnergy             9344571495                       # Total energy per rank (pJ)
system.mem_ctrls_1.averagePower            612.062676                       # Core power per rank (mW)
system.mem_ctrls_1.totalIdleTime          11706777125                       # Total Idle time Per DRAM Rank
system.mem_ctrls_1.memoryStateTime::IDLE      9911500                       # Time in different power states
system.mem_ctrls_1.memoryStateTime::REF     509866000                       # Time in different power states
system.mem_ctrls_1.memoryStateTime::SREF      9276750                       # Time in different power states
system.mem_ctrls_1.memoryStateTime::PRE_PDN    288216750                       # Time in different power states
system.mem_ctrls_1.memoryStateTime::ACT    3040498500                       # Time in different power states
system.mem_ctrls_1.memoryStateTime::ACT_PDN  11409574625                       # Time in different power states
system.pwrStateResidencyTicks::UNDEFINED  15267344125                       # Cumulative time (in ticks) in various power states
system.cpu0.branchPred.lookups                1881059                       # Number of BP lookups
system.cpu0.branchPred.condPredicted          1881059                       # Number of conditional branches predicted
system.cpu0.branchPred.condIncorrect            78408                       # Number of conditional branches incorrect
system.cpu0.branchPred.BTBLookups             1504055                       # Number of BTB lookups
system.cpu0.branchPred.BTBHits                      0                       # Number of BTB hits
system.cpu0.branchPred.BTBCorrect                   0                       # Number of correct BTB predictions (this stat may not work properly.
system.cpu0.branchPred.BTBHitPct             0.000000                       # BTB Hit Percentage
system.cpu0.branchPred.usedRAS                  49915                       # Number of times the RAS was used to get a target.
system.cpu0.branchPred.RASInCorrect              7878                       # Number of incorrect RAS predictions.
system.cpu0.branchPred.indirectLookups        1504055                       # Number of indirect predictor lookups.
system.cpu0.branchPred.indirectHits            801463                       # Number of indirect target hits.
system.cpu0.branchPred.indirectMisses          702592                       # Number of indirect misses.
system.cpu0.branchPredindirectMispredicted        25171                       # Number of mispredicted indirect branches.
system.cpu_voltage_domain.voltage                   1                       # Voltage in Volts
system.cpu_clk_domain.clock                       500                       # Clock period in ticks
system.cpu0.dtb.walker.pwrStateResidencyTicks::UNDEFINED  15267344125                       # Cumulative time (in ticks) in various power states
system.cpu0.dtb.rdAccesses                     872316                       # TLB accesses on read requests
system.cpu0.dtb.wrAccesses                      52980                       # TLB accesses on write requests
system.cpu0.dtb.rdMisses                       178047                       # TLB misses on read requests
system.cpu0.dtb.wrMisses                          973                       # TLB misses on write requests
system.cpu0.apic_clk_domain.clock                8000                       # Clock period in ticks
system.cpu0.interrupts.pwrStateResidencyTicks::UNDEFINED  15267344125                       # Cumulative time (in ticks) in various power states
system.cpu0.itb.walker.pwrStateResidencyTicks::UNDEFINED  15267344125                       # Cumulative time (in ticks) in various power states
system.cpu0.itb.rdAccesses                          0                       # TLB accesses on read requests
system.cpu0.itb.wrAccesses                    1566762                       # TLB accesses on write requests
system.cpu0.itb.rdMisses                            0                       # TLB misses on read requests
system.cpu0.itb.wrMisses                         5584                       # TLB misses on write requests
system.cpu0.workload.numSyscalls                    0                       # Number of system calls
system.cpu0.pwrStateResidencyTicks::ON    15267344125                       # Cumulative time (in ticks) in various power states
system.cpu0.numCycles                        30534688                       # number of cpu cycles simulated
system.cpu0.numWorkItemsStarted                     0                       # number of work items this cpu started
system.cpu0.numWorkItemsCompleted                   0                       # number of work items this cpu completed
system.cpu0.fetch.icacheStallCycles           1601326                       # Number of cycles fetch is stalled on an Icache miss
system.cpu0.fetch.Insts                       5433054                       # Number of instructions fetch has processed
system.cpu0.fetch.Branches                    1881059                       # Number of branches that fetch encountered
system.cpu0.fetch.predictedBranches            851378                       # Number of branches that fetch has predicted taken
system.cpu0.fetch.Cycles                     28741659                       # Number of cycles fetch has run and was not squashing or blocked
system.cpu0.fetch.SquashCycles                 160374                       # Number of cycles fetch has spent squashing
system.cpu0.fetch.TlbCycles                      2124                       # Number of cycles fetch has spent waiting for tlb
system.cpu0.fetch.MiscStallCycles                1350                       # Number of cycles fetch has spent waiting on interrupts, or bad addresses, or out of MSHRs
system.cpu0.fetch.PendingTrapStallCycles        49297                       # Number of stall cycles due to pending traps
system.cpu0.fetch.CacheLines                  1561178                       # Number of cache lines fetched
system.cpu0.fetch.IcacheSquashes                 9359                       # Number of outstanding Icache misses that were squashed
system.cpu0.fetch.ItlbSquashes                      9                       # Number of outstanding ITLB misses that were squashed
system.cpu0.fetch.rateDist::samples          30475943                       # Number of instructions fetched each cycle (Total)
system.cpu0.fetch.rateDist::mean             0.358499                       # Number of instructions fetched each cycle (Total)
system.cpu0.fetch.rateDist::stdev            1.502776                       # Number of instructions fetched each cycle (Total)
system.cpu0.fetch.rateDist::underflows              0      0.00%      0.00% # Number of instructions fetched each cycle (Total)
system.cpu0.fetch.rateDist::0                28359646     93.06%     93.06% # Number of instructions fetched each cycle (Total)
system.cpu0.fetch.rateDist::1                   26366      0.09%     93.14% # Number of instructions fetched each cycle (Total)
system.cpu0.fetch.rateDist::2                  778108      2.55%     95.70% # Number of instructions fetched each cycle (Total)
system.cpu0.fetch.rateDist::3                   26614      0.09%     95.78% # Number of instructions fetched each cycle (Total)
system.cpu0.fetch.rateDist::4                  147641      0.48%     96.27% # Number of instructions fetched each cycle (Total)
system.cpu0.fetch.rateDist::5                   71208      0.23%     96.50% # Number of instructions fetched each cycle (Total)
system.cpu0.fetch.rateDist::6                   94290      0.31%     96.81% # Number of instructions fetched each cycle (Total)
system.cpu0.fetch.rateDist::7                   25729      0.08%     96.89% # Number of instructions fetched each cycle (Total)
system.cpu0.fetch.rateDist::8                  946341      3.11%    100.00% # Number of instructions fetched each cycle (Total)
system.cpu0.fetch.rateDist::overflows               0      0.00%    100.00% # Number of instructions fetched each cycle (Total)
system.cpu0.fetch.rateDist::min_value               0                       # Number of instructions fetched each cycle (Total)
system.cpu0.fetch.rateDist::max_value               8                       # Number of instructions fetched each cycle (Total)
system.cpu0.fetch.rateDist::total            30475943                       # Number of instructions fetched each cycle (Total)
system.cpu0.fetch.branchRate                 0.061604                       # Number of branch fetches per cycle
system.cpu0.fetch.rate                       0.177931                       # Number of inst fetches per cycle
system.cpu0.decode.IdleCycles                  796809                       # Number of cycles decode is idle
system.cpu0.decode.BlockedCycles             28211064                       # Number of cycles decode is blocked
system.cpu0.decode.RunCycles                  1031210                       # Number of cycles decode is running
system.cpu0.decode.UnblockCycles               356673                       # Number of cycles decode is unblocking
system.cpu0.decode.SquashCycles                 80187                       # Number of cycles decode is squashing
system.cpu0.decode.DecodedInsts               8976311                       # Number of instructions handled by decode
system.cpu0.rename.SquashCycles                 80187                       # Number of cycles rename is squashing
system.cpu0.rename.IdleCycles                  907958                       # Number of cycles rename is idle
system.cpu0.rename.BlockCycles               26809210                       # Number of cycles rename is blocking
system.cpu0.rename.serializeStallCycles         17284                       # count of cycles rename stalled for serializing inst
system.cpu0.rename.RunCycles                  1190546                       # Number of cycles rename is running
system.cpu0.rename.UnblockCycles              1470758                       # Number of cycles rename is unblocking
system.cpu0.rename.RenamedInsts               8609378                       # Number of instructions processed by rename
system.cpu0.rename.ROBFullEvents                72964                       # Number of times rename has blocked due to ROB full
system.cpu0.rename.IQFullEvents               1168715                       # Number of times rename has blocked due to IQ full
system.cpu0.rename.LQFullEvents                253856                       # Number of times rename has blocked due to LQ full
system.cpu0.rename.SQFullEvents                   734                       # Number of times rename has blocked due to SQ full
system.cpu0.rename.RenamedOperands           10264980                       # Number of destination operands rename has renamed
system.cpu0.rename.RenameLookups             23992843                       # Number of register rename lookups that rename has made
system.cpu0.rename.int_rename_lookups        11244029                       # Number of integer rename lookups
system.cpu0.rename.fp_rename_lookups            39375                       # Number of floating rename lookups
system.cpu0.rename.CommittedMaps              3546548                       # Number of HB maps that are committed
system.cpu0.rename.UndoneMaps                 6718446                       # Number of HB maps that are undone due to squashing
system.cpu0.rename.serializingInsts               360                       # count of serializing insts renamed
system.cpu0.rename.tempSerializingInsts           431                       # count of temporary serializing insts renamed
system.cpu0.rename.skidInsts                  2257470                       # count of insts added to the skid buffer
system.cpu0.memDep0.insertedLoads             1564719                       # Number of loads inserted to the mem dependence unit.
system.cpu0.memDep0.insertedStores              79155                       # Number of stores inserted to the mem dependence unit.
system.cpu0.memDep0.conflictingLoads             4704                       # Number of conflicting loads.
system.cpu0.memDep0.conflictingStores            4827                       # Number of conflicting stores.
system.cpu0.iq.iqInstsAdded                   8174725                       # Number of instructions added to the IQ (excludes non-spec)
system.cpu0.iq.iqNonSpecInstsAdded               4902                       # Number of non-speculative instructions added to the IQ
system.cpu0.iq.iqInstsIssued                  5799039                       # Number of instructions issued
system.cpu0.iq.iqSquashedInstsIssued             6005                       # Number of squashed instructions issued
system.cpu0.iq.iqSquashedInstsExamined        5218806                       # Number of squashed instructions iterated over during squash; mainly for profiling
system.cpu0.iq.iqSquashedOperandsExamined     10980924                       # Number of squashed operands that are examined and possibly removed from graph
system.cpu0.iq.iqSquashedNonSpecRemoved          4902                       # Number of squashed non-spec instructions that were removed
system.cpu0.iq.issued_per_cycle::samples     30475943                       # Number of insts issued each cycle
system.cpu0.iq.issued_per_cycle::mean        0.190283                       # Number of insts issued each cycle
system.cpu0.iq.issued_per_cycle::stdev       0.793912                       # Number of insts issued each cycle
system.cpu0.iq.issued_per_cycle::underflows            0      0.00%      0.00% # Number of insts issued each cycle
system.cpu0.iq.issued_per_cycle::0           28112606     92.25%     92.25% # Number of insts issued each cycle
system.cpu0.iq.issued_per_cycle::1             926581      3.04%     95.29% # Number of insts issued each cycle
system.cpu0.iq.issued_per_cycle::2             497641      1.63%     96.92% # Number of insts issued each cycle
system.cpu0.iq.issued_per_cycle::3             333784      1.10%     98.01% # Number of insts issued each cycle
system.cpu0.iq.issued_per_cycle::4             362139      1.19%     99.20% # Number of insts issued each cycle
system.cpu0.iq.issued_per_cycle::5             106038      0.35%     99.55% # Number of insts issued each cycle
system.cpu0.iq.issued_per_cycle::6              85192      0.28%     99.83% # Number of insts issued each cycle
system.cpu0.iq.issued_per_cycle::7              29770      0.10%     99.93% # Number of insts issued each cycle
system.cpu0.iq.issued_per_cycle::8              22192      0.07%    100.00% # Number of insts issued each cycle
system.cpu0.iq.issued_per_cycle::overflows            0      0.00%    100.00% # Number of insts issued each cycle
system.cpu0.iq.issued_per_cycle::min_value            0                       # Number of insts issued each cycle
system.cpu0.iq.issued_per_cycle::max_value            8                       # Number of insts issued each cycle
system.cpu0.iq.issued_per_cycle::total       30475943                       # Number of insts issued each cycle
system.cpu0.iq.fu_full::No_OpClass                  0      0.00%      0.00% # attempts to use FU when none available
system.cpu0.iq.fu_full::IntAlu                  11330     67.47%     67.47% # attempts to use FU when none available
system.cpu0.iq.fu_full::IntMult                     0      0.00%     67.47% # attempts to use FU when none available
system.cpu0.iq.fu_full::IntDiv                      0      0.00%     67.47% # attempts to use FU when none available
system.cpu0.iq.fu_full::FloatAdd                 1201      7.15%     74.62% # attempts to use FU when none available
system.cpu0.iq.fu_full::FloatCmp                    0      0.00%     74.62% # attempts to use FU when none available
system.cpu0.iq.fu_full::FloatCvt                    0      0.00%     74.62% # attempts to use FU when none available
system.cpu0.iq.fu_full::FloatMult                   0      0.00%     74.62% # attempts to use FU when none available
system.cpu0.iq.fu_full::FloatMultAcc                0      0.00%     74.62% # attempts to use FU when none available
system.cpu0.iq.fu_full::FloatDiv                    0      0.00%     74.62% # attempts to use FU when none available
system.cpu0.iq.fu_full::FloatMisc                   0      0.00%     74.62% # attempts to use FU when none available
system.cpu0.iq.fu_full::FloatSqrt                   0      0.00%     74.62% # attempts to use FU when none available
system.cpu0.iq.fu_full::SimdAdd                     0      0.00%     74.62% # attempts to use FU when none available
system.cpu0.iq.fu_full::SimdAddAcc                  0      0.00%     74.62% # attempts to use FU when none available
system.cpu0.iq.fu_full::SimdAlu                     0      0.00%     74.62% # attempts to use FU when none available
system.cpu0.iq.fu_full::SimdCmp                     0      0.00%     74.62% # attempts to use FU when none available
system.cpu0.iq.fu_full::SimdCvt                     0      0.00%     74.62% # attempts to use FU when none available
system.cpu0.iq.fu_full::SimdMisc                    0      0.00%     74.62% # attempts to use FU when none available
system.cpu0.iq.fu_full::SimdMult                    0      0.00%     74.62% # attempts to use FU when none available
system.cpu0.iq.fu_full::SimdMultAcc                 0      0.00%     74.62% # attempts to use FU when none available
system.cpu0.iq.fu_full::SimdShift                   0      0.00%     74.62% # attempts to use FU when none available
system.cpu0.iq.fu_full::SimdShiftAcc                0      0.00%     74.62% # attempts to use FU when none available
system.cpu0.iq.fu_full::SimdSqrt                    0      0.00%     74.62% # attempts to use FU when none available
system.cpu0.iq.fu_full::SimdFloatAdd                0      0.00%     74.62% # attempts to use FU when none available
system.cpu0.iq.fu_full::SimdFloatAlu                0      0.00%     74.62% # attempts to use FU when none available
system.cpu0.iq.fu_full::SimdFloatCmp                0      0.00%     74.62% # attempts to use FU when none available
system.cpu0.iq.fu_full::SimdFloatCvt                0      0.00%     74.62% # attempts to use FU when none available
system.cpu0.iq.fu_full::SimdFloatDiv                0      0.00%     74.62% # attempts to use FU when none available
system.cpu0.iq.fu_full::SimdFloatMisc               0      0.00%     74.62% # attempts to use FU when none available
system.cpu0.iq.fu_full::SimdFloatMult               0      0.00%     74.62% # attempts to use FU when none available
system.cpu0.iq.fu_full::SimdFloatMultAcc            0      0.00%     74.62% # attempts to use FU when none available
system.cpu0.iq.fu_full::SimdFloatSqrt               0      0.00%     74.62% # attempts to use FU when none available
system.cpu0.iq.fu_full::MemRead                  3845     22.90%     97.52% # attempts to use FU when none available
system.cpu0.iq.fu_full::MemWrite                  271      1.61%     99.13% # attempts to use FU when none available
system.cpu0.iq.fu_full::FloatMemRead              108      0.64%     99.77% # attempts to use FU when none available
system.cpu0.iq.fu_full::FloatMemWrite              38      0.23%    100.00% # attempts to use FU when none available
system.cpu0.iq.fu_full::IprAccess                   0      0.00%    100.00% # attempts to use FU when none available
system.cpu0.iq.fu_full::InstPrefetch                0      0.00%    100.00% # attempts to use FU when none available
system.cpu0.iq.FU_type_0::No_OpClass            19003      0.33%      0.33% # Type of FU issued
system.cpu0.iq.FU_type_0::IntAlu              4782735     82.47%     82.80% # Type of FU issued
system.cpu0.iq.FU_type_0::IntMult                1080      0.02%     82.82% # Type of FU issued
system.cpu0.iq.FU_type_0::IntDiv                 9780      0.17%     82.99% # Type of FU issued
system.cpu0.iq.FU_type_0::FloatAdd              14544      0.25%     83.24% # Type of FU issued
system.cpu0.iq.FU_type_0::FloatCmp                  0      0.00%     83.24% # Type of FU issued
system.cpu0.iq.FU_type_0::FloatCvt                  0      0.00%     83.24% # Type of FU issued
system.cpu0.iq.FU_type_0::FloatMult                 0      0.00%     83.24% # Type of FU issued
system.cpu0.iq.FU_type_0::FloatMultAcc              0      0.00%     83.24% # Type of FU issued
system.cpu0.iq.FU_type_0::FloatDiv                  0      0.00%     83.24% # Type of FU issued
system.cpu0.iq.FU_type_0::FloatMisc                 0      0.00%     83.24% # Type of FU issued
system.cpu0.iq.FU_type_0::FloatSqrt                 0      0.00%     83.24% # Type of FU issued
system.cpu0.iq.FU_type_0::SimdAdd                   0      0.00%     83.24% # Type of FU issued
system.cpu0.iq.FU_type_0::SimdAddAcc                0      0.00%     83.24% # Type of FU issued
system.cpu0.iq.FU_type_0::SimdAlu                   0      0.00%     83.24% # Type of FU issued
system.cpu0.iq.FU_type_0::SimdCmp                   0      0.00%     83.24% # Type of FU issued
system.cpu0.iq.FU_type_0::SimdCvt                   0      0.00%     83.24% # Type of FU issued
system.cpu0.iq.FU_type_0::SimdMisc                  0      0.00%     83.24% # Type of FU issued
system.cpu0.iq.FU_type_0::SimdMult                  0      0.00%     83.24% # Type of FU issued
system.cpu0.iq.FU_type_0::SimdMultAcc               0      0.00%     83.24% # Type of FU issued
system.cpu0.iq.FU_type_0::SimdShift                 0      0.00%     83.24% # Type of FU issued
system.cpu0.iq.FU_type_0::SimdShiftAcc              0      0.00%     83.24% # Type of FU issued
system.cpu0.iq.FU_type_0::SimdSqrt                  0      0.00%     83.24% # Type of FU issued
system.cpu0.iq.FU_type_0::SimdFloatAdd              0      0.00%     83.24% # Type of FU issued
system.cpu0.iq.FU_type_0::SimdFloatAlu              0      0.00%     83.24% # Type of FU issued
system.cpu0.iq.FU_type_0::SimdFloatCmp              0      0.00%     83.24% # Type of FU issued
system.cpu0.iq.FU_type_0::SimdFloatCvt              0      0.00%     83.24% # Type of FU issued
system.cpu0.iq.FU_type_0::SimdFloatDiv              0      0.00%     83.24% # Type of FU issued
system.cpu0.iq.FU_type_0::SimdFloatMisc             0      0.00%     83.24% # Type of FU issued
system.cpu0.iq.FU_type_0::SimdFloatMult             0      0.00%     83.24% # Type of FU issued
system.cpu0.iq.FU_type_0::SimdFloatMultAcc            0      0.00%     83.24% # Type of FU issued
system.cpu0.iq.FU_type_0::SimdFloatSqrt             0      0.00%     83.24% # Type of FU issued
system.cpu0.iq.FU_type_0::MemRead              911967     15.73%     98.97% # Type of FU issued
system.cpu0.iq.FU_type_0::MemWrite              57278      0.99%     99.95% # Type of FU issued
system.cpu0.iq.FU_type_0::FloatMemRead           2492      0.04%    100.00% # Type of FU issued
system.cpu0.iq.FU_type_0::FloatMemWrite           160      0.00%    100.00% # Type of FU issued
system.cpu0.iq.FU_type_0::IprAccess                 0      0.00%    100.00% # Type of FU issued
system.cpu0.iq.FU_type_0::InstPrefetch              0      0.00%    100.00% # Type of FU issued
system.cpu0.iq.FU_type_0::total               5799039                       # Type of FU issued
system.cpu0.iq.rate                          0.189916                       # Inst issue rate
system.cpu0.iq.fu_busy_cnt                      16793                       # FU busy when requested
system.cpu0.iq.fu_busy_rate                  0.002896                       # FU busy rate (busy events/executed inst)
system.cpu0.iq.int_inst_queue_reads          42060857                       # Number of integer instruction queue reads
system.cpu0.iq.int_inst_queue_writes         13364556                       # Number of integer instruction queue writes
system.cpu0.iq.int_inst_queue_wakeup_accesses      5557177                       # Number of integer instruction queue wakeup accesses
system.cpu0.iq.fp_inst_queue_reads              35962                       # Number of floating instruction queue reads
system.cpu0.iq.fp_inst_queue_writes             33882                       # Number of floating instruction queue writes
system.cpu0.iq.fp_inst_queue_wakeup_accesses        15791                       # Number of floating instruction queue wakeup accesses
system.cpu0.iq.vec_inst_queue_reads                 0                       # Number of vector instruction queue reads
system.cpu0.iq.vec_inst_queue_writes                0                       # Number of vector instruction queue writes
system.cpu0.iq.vec_inst_queue_wakeup_accesses            0                       # Number of vector instruction queue wakeup accesses
system.cpu0.iq.int_alu_accesses               5778268                       # Number of integer alu accesses
system.cpu0.iq.fp_alu_accesses                  18561                       # Number of floating point alu accesses
system.cpu0.iq.vec_alu_accesses                     0                       # Number of vector alu accesses
system.cpu0.iew.lsq.thread0.forwLoads            4471                       # Number of loads that had data forwarded from stores
system.cpu0.iew.lsq.thread0.invAddrLoads            0                       # Number of loads ignored due to an invalid address
system.cpu0.iew.lsq.thread0.squashedLoads      1000672                       # Number of loads squashed
system.cpu0.iew.lsq.thread0.ignoredResponses          167                       # Number of memory responses ignored because the instruction is squashed
system.cpu0.iew.lsq.thread0.memOrderViolation            5                       # Number of memory ordering violations
system.cpu0.iew.lsq.thread0.squashedStores        51663                       # Number of stores squashed
system.cpu0.iew.lsq.thread0.invAddrSwpfs            0                       # Number of software prefetches ignored due to an invalid address
system.cpu0.iew.lsq.thread0.blockedLoads            0                       # Number of blocked loads due to partial load-store forwarding
system.cpu0.iew.lsq.thread0.rescheduledLoads           46                       # Number of loads that were rescheduled
system.cpu0.iew.lsq.thread0.cacheBlocked         1716                       # Number of times an access to memory failed due to the cache being blocked
system.cpu0.iew.iewIdleCycles                       0                       # Number of cycles IEW is idle
system.cpu0.iew.iewSquashCycles                 80187                       # Number of cycles IEW is squashing
system.cpu0.iew.iewBlockCycles               24786433                       # Number of cycles IEW is blocking
system.cpu0.iew.iewUnblockCycles               290968                       # Number of cycles IEW is unblocking
system.cpu0.iew.iewDispatchedInsts            8179627                       # Number of instructions dispatched to IQ
system.cpu0.iew.iewDispSquashedInsts             5219                       # Number of squashed instructions skipped by dispatch
system.cpu0.iew.iewDispLoadInsts              1564719                       # Number of dispatched load instructions
system.cpu0.iew.iewDispStoreInsts               79155                       # Number of dispatched store instructions
system.cpu0.iew.iewDispNonSpecInsts              1851                       # Number of dispatched non-speculative instructions
system.cpu0.iew.iewIQFullEvents                 21210                       # Number of times the IQ has become full, causing a stall
system.cpu0.iew.iewLSQFullEvents                64226                       # Number of times the LSQ has become full, causing a stall
system.cpu0.iew.memOrderViolationEvents             5                       # Number of memory order violations
system.cpu0.iew.predictedTakenIncorrect         42982                       # Number of branches that were predicted taken incorrectly
system.cpu0.iew.predictedNotTakenIncorrect        45069                       # Number of branches that were predicted not taken incorrectly
system.cpu0.iew.branchMispredicts               88051                       # Number of branch mispredicts detected at execute
system.cpu0.iew.iewExecutedInsts              5692882                       # Number of executed instructions
system.cpu0.iew.iewExecLoadInsts               872048                       # Number of load instructions executed
system.cpu0.iew.iewExecSquashedInsts           106157                       # Number of squashed instructions skipped in execute
system.cpu0.iew.exec_swp                            0                       # number of swp insts executed
system.cpu0.iew.exec_nop                            0                       # number of nop insts executed
system.cpu0.iew.exec_refs                      925013                       # number of memory reference insts executed
system.cpu0.iew.exec_branches                  678984                       # Number of branches executed
system.cpu0.iew.exec_stores                     52965                       # Number of stores executed
system.cpu0.iew.exec_rate                    0.186440                       # Inst execution rate
system.cpu0.iew.wb_sent                       5591438                       # cumulative count of insts sent to commit
system.cpu0.iew.wb_count                      5572968                       # cumulative count of insts written-back
system.cpu0.iew.wb_producers                  4143208                       # num instructions producing a value
system.cpu0.iew.wb_consumers                  6497056                       # num instructions consuming a value
system.cpu0.iew.wb_rate                      0.182513                       # insts written-back per cycle
system.cpu0.iew.wb_fanout                    0.637705                       # average fanout of values written-back
system.cpu0.commit.commitSquashedInsts        5219587                       # The number of squashed insts skipped by commit
system.cpu0.commit.branchMispredicts            80184                       # The number of times a branch was mispredicted
system.cpu0.commit.committed_per_cycle::samples     29739207                       # Number of insts commited each cycle
system.cpu0.commit.committed_per_cycle::mean     0.099560                       # Number of insts commited each cycle
system.cpu0.commit.committed_per_cycle::stdev     0.582673                       # Number of insts commited each cycle
system.cpu0.commit.committed_per_cycle::underflows            0      0.00%      0.00% # Number of insts commited each cycle
system.cpu0.commit.committed_per_cycle::0     28459675     95.70%     95.70% # Number of insts commited each cycle
system.cpu0.commit.committed_per_cycle::1       591681      1.99%     97.69% # Number of insts commited each cycle
system.cpu0.commit.committed_per_cycle::2       137085      0.46%     98.15% # Number of insts commited each cycle
system.cpu0.commit.committed_per_cycle::3       378505      1.27%     99.42% # Number of insts commited each cycle
system.cpu0.commit.committed_per_cycle::4        71081      0.24%     99.66% # Number of insts commited each cycle
system.cpu0.commit.committed_per_cycle::5        38775      0.13%     99.79% # Number of insts commited each cycle
system.cpu0.commit.committed_per_cycle::6         6920      0.02%     99.81% # Number of insts commited each cycle
system.cpu0.commit.committed_per_cycle::7         4128      0.01%     99.83% # Number of insts commited each cycle
system.cpu0.commit.committed_per_cycle::8        51357      0.17%    100.00% # Number of insts commited each cycle
system.cpu0.commit.committed_per_cycle::overflows            0      0.00%    100.00% # Number of insts commited each cycle
system.cpu0.commit.committed_per_cycle::min_value            0                       # Number of insts commited each cycle
system.cpu0.commit.committed_per_cycle::max_value            8                       # Number of insts commited each cycle
system.cpu0.commit.committed_per_cycle::total     29739207                       # Number of insts commited each cycle
system.cpu0.commit.committedInsts             1480948                       # Number of instructions committed
system.cpu0.commit.committedOps               2960837                       # Number of ops (including micro ops) committed
system.cpu0.commit.swp_count                        0                       # Number of s/w prefetches committed
system.cpu0.commit.refs                        591542                       # Number of memory references committed
system.cpu0.commit.loads                       564050                       # Number of loads committed
system.cpu0.commit.membars                          0                       # Number of memory barriers committed
system.cpu0.commit.branches                    537205                       # Number of branches committed
system.cpu0.commit.vec_insts                        0                       # Number of committed Vector instructions.
system.cpu0.commit.fp_insts                     11026                       # Number of committed floating point instructions.
system.cpu0.commit.int_insts                  2949713                       # Number of committed integer instructions.
system.cpu0.commit.function_calls                4850                       # Number of function calls committed.
system.cpu0.commit.op_class_0::No_OpClass         3310      0.11%      0.11% # Class of committed instruction
system.cpu0.commit.op_class_0::IntAlu         2348369     79.31%     79.43% # Class of committed instruction
system.cpu0.commit.op_class_0::IntMult            194      0.01%     79.43% # Class of committed instruction
system.cpu0.commit.op_class_0::IntDiv            8002      0.27%     79.70% # Class of committed instruction
system.cpu0.commit.op_class_0::FloatAdd          9420      0.32%     80.02% # Class of committed instruction
system.cpu0.commit.op_class_0::FloatCmp             0      0.00%     80.02% # Class of committed instruction
system.cpu0.commit.op_class_0::FloatCvt             0      0.00%     80.02% # Class of committed instruction
system.cpu0.commit.op_class_0::FloatMult            0      0.00%     80.02% # Class of committed instruction
system.cpu0.commit.op_class_0::FloatMultAcc            0      0.00%     80.02% # Class of committed instruction
system.cpu0.commit.op_class_0::FloatDiv             0      0.00%     80.02% # Class of committed instruction
system.cpu0.commit.op_class_0::FloatMisc            0      0.00%     80.02% # Class of committed instruction
system.cpu0.commit.op_class_0::FloatSqrt            0      0.00%     80.02% # Class of committed instruction
system.cpu0.commit.op_class_0::SimdAdd              0      0.00%     80.02% # Class of committed instruction
system.cpu0.commit.op_class_0::SimdAddAcc            0      0.00%     80.02% # Class of committed instruction
system.cpu0.commit.op_class_0::SimdAlu              0      0.00%     80.02% # Class of committed instruction
system.cpu0.commit.op_class_0::SimdCmp              0      0.00%     80.02% # Class of committed instruction
system.cpu0.commit.op_class_0::SimdCvt              0      0.00%     80.02% # Class of committed instruction
system.cpu0.commit.op_class_0::SimdMisc             0      0.00%     80.02% # Class of committed instruction
system.cpu0.commit.op_class_0::SimdMult             0      0.00%     80.02% # Class of committed instruction
system.cpu0.commit.op_class_0::SimdMultAcc            0      0.00%     80.02% # Class of committed instruction
system.cpu0.commit.op_class_0::SimdShift            0      0.00%     80.02% # Class of committed instruction
system.cpu0.commit.op_class_0::SimdShiftAcc            0      0.00%     80.02% # Class of committed instruction
system.cpu0.commit.op_class_0::SimdSqrt             0      0.00%     80.02% # Class of committed instruction
system.cpu0.commit.op_class_0::SimdFloatAdd            0      0.00%     80.02% # Class of committed instruction
system.cpu0.commit.op_class_0::SimdFloatAlu            0      0.00%     80.02% # Class of committed instruction
system.cpu0.commit.op_class_0::SimdFloatCmp            0      0.00%     80.02% # Class of committed instruction
system.cpu0.commit.op_class_0::SimdFloatCvt            0      0.00%     80.02% # Class of committed instruction
system.cpu0.commit.op_class_0::SimdFloatDiv            0      0.00%     80.02% # Class of committed instruction
system.cpu0.commit.op_class_0::SimdFloatMisc            0      0.00%     80.02% # Class of committed instruction
system.cpu0.commit.op_class_0::SimdFloatMult            0      0.00%     80.02% # Class of committed instruction
system.cpu0.commit.op_class_0::SimdFloatMultAcc            0      0.00%     80.02% # Class of committed instruction
system.cpu0.commit.op_class_0::SimdFloatSqrt            0      0.00%     80.02% # Class of committed instruction
system.cpu0.commit.op_class_0::MemRead         562444     19.00%     99.02% # Class of committed instruction
system.cpu0.commit.op_class_0::MemWrite         27492      0.93%     99.95% # Class of committed instruction
system.cpu0.commit.op_class_0::FloatMemRead         1606      0.05%    100.00% # Class of committed instruction
system.cpu0.commit.op_class_0::FloatMemWrite            0      0.00%    100.00% # Class of committed instruction
system.cpu0.commit.op_class_0::IprAccess            0      0.00%    100.00% # Class of committed instruction
system.cpu0.commit.op_class_0::InstPrefetch            0      0.00%    100.00% # Class of committed instruction
system.cpu0.commit.op_class_0::total          2960837                       # Class of committed instruction
system.cpu0.commit.bw_lim_events                51357                       # number cycles where commit BW limit reached
system.cpu0.rob.rob_reads                    37868274                       # The number of ROB reads
system.cpu0.rob.rob_writes                   17099383                       # The number of ROB writes
system.cpu0.timesIdled                            477                       # Number of times that the entire CPU went into an idle state and unscheduled itself
system.cpu0.idleCycles                          58745                       # Total number of cycles that the CPU has spent unscheduled due to idling
system.cpu0.committedInsts                    1480948                       # Number of Instructions Simulated
system.cpu0.committedOps                      2960837                       # Number of Ops (including micro ops) Simulated
system.cpu0.cpi                             20.618339                       # CPI: Cycles Per Instruction
system.cpu0.cpi_total                       20.618339                       # CPI: Total CPI of All Threads
system.cpu0.ipc                              0.048501                       # IPC: Instructions Per Cycle
system.cpu0.ipc_total                        0.048501                       # IPC: Total IPC of All Threads
system.cpu0.int_regfile_reads                 5591684                       # number of integer regfile reads
system.cpu0.int_regfile_writes                4846818                       # number of integer regfile writes
system.cpu0.fp_regfile_reads                    28221                       # number of floating regfile reads
system.cpu0.fp_regfile_writes                   14048                       # number of floating regfile writes
system.cpu0.cc_regfile_reads                  3557873                       # number of cc regfile reads
system.cpu0.cc_regfile_writes                 1515764                       # number of cc regfile writes
system.cpu0.misc_regfile_reads                3016251                       # number of misc regfile reads
system.cpu0.dcache.tags.pwrStateResidencyTicks::UNDEFINED  15267344125                       # Cumulative time (in ticks) in various power states
system.cpu0.dcache.tags.replacements           295260                       # number of replacements
system.cpu0.dcache.tags.tagsinuse                1024                       # Cycle average of tags in use
system.cpu0.dcache.tags.total_refs             368275                       # Total number of references to valid blocks.
system.cpu0.dcache.tags.sampled_refs           295260                       # Sample count of references to valid blocks.
system.cpu0.dcache.tags.avg_refs             1.247291                       # Average number of references to valid blocks.
system.cpu0.dcache.tags.warmup_cycle                0                       # Cycle when the warmup percentage was hit.
system.cpu0.dcache.tags.occ_blocks::cpu0.data         1024                       # Average occupied blocks per requestor
system.cpu0.dcache.tags.occ_percent::cpu0.data            1                       # Average percentage of cache occupancy
system.cpu0.dcache.tags.occ_percent::total            1                       # Average percentage of cache occupancy
system.cpu0.dcache.tags.occ_task_id_blocks::1024         1024                       # Occupied blocks per task id
system.cpu0.dcache.tags.age_task_id_blocks_1024::0          135                       # Occupied blocks per task id
system.cpu0.dcache.tags.age_task_id_blocks_1024::1          804                       # Occupied blocks per task id
system.cpu0.dcache.tags.age_task_id_blocks_1024::2           85                       # Occupied blocks per task id
system.cpu0.dcache.tags.occ_task_id_percent::1024            1                       # Percentage of cache occupancy per task id
system.cpu0.dcache.tags.tag_accesses          3856384                       # Number of tag accesses
system.cpu0.dcache.tags.data_accesses         3856384                       # Number of data accesses
system.cpu0.dcache.pwrStateResidencyTicks::UNDEFINED  15267344125                       # Cumulative time (in ticks) in various power states
system.cpu0.dcache.ReadReq_hits::cpu0.data       342789                       # number of ReadReq hits
system.cpu0.dcache.ReadReq_hits::total         342789                       # number of ReadReq hits
system.cpu0.dcache.WriteReq_hits::cpu0.data        26403                       # number of WriteReq hits
system.cpu0.dcache.WriteReq_hits::total         26403                       # number of WriteReq hits
system.cpu0.dcache.demand_hits::cpu0.data       369192                       # number of demand (read+write) hits
system.cpu0.dcache.demand_hits::total          369192                       # number of demand (read+write) hits
system.cpu0.dcache.overall_hits::cpu0.data       369192                       # number of overall hits
system.cpu0.dcache.overall_hits::total         369192                       # number of overall hits
system.cpu0.dcache.ReadReq_misses::cpu0.data       520000                       # number of ReadReq misses
system.cpu0.dcache.ReadReq_misses::total       520000                       # number of ReadReq misses
system.cpu0.dcache.WriteReq_misses::cpu0.data         1089                       # number of WriteReq misses
system.cpu0.dcache.WriteReq_misses::total         1089                       # number of WriteReq misses
system.cpu0.dcache.demand_misses::cpu0.data       521089                       # number of demand (read+write) misses
system.cpu0.dcache.demand_misses::total        521089                       # number of demand (read+write) misses
system.cpu0.dcache.overall_misses::cpu0.data       521089                       # number of overall misses
system.cpu0.dcache.overall_misses::total       521089                       # number of overall misses
system.cpu0.dcache.ReadReq_miss_latency::cpu0.data  34782194000                       # number of ReadReq miss cycles
system.cpu0.dcache.ReadReq_miss_latency::total  34782194000                       # number of ReadReq miss cycles
system.cpu0.dcache.WriteReq_miss_latency::cpu0.data     39979500                       # number of WriteReq miss cycles
system.cpu0.dcache.WriteReq_miss_latency::total     39979500                       # number of WriteReq miss cycles
system.cpu0.dcache.demand_miss_latency::cpu0.data  34822173500                       # number of demand (read+write) miss cycles
system.cpu0.dcache.demand_miss_latency::total  34822173500                       # number of demand (read+write) miss cycles
system.cpu0.dcache.overall_miss_latency::cpu0.data  34822173500                       # number of overall miss cycles
system.cpu0.dcache.overall_miss_latency::total  34822173500                       # number of overall miss cycles
system.cpu0.dcache.ReadReq_accesses::cpu0.data       862789                       # number of ReadReq accesses(hits+misses)
system.cpu0.dcache.ReadReq_accesses::total       862789                       # number of ReadReq accesses(hits+misses)
system.cpu0.dcache.WriteReq_accesses::cpu0.data        27492                       # number of WriteReq accesses(hits+misses)
system.cpu0.dcache.WriteReq_accesses::total        27492                       # number of WriteReq accesses(hits+misses)
system.cpu0.dcache.demand_accesses::cpu0.data       890281                       # number of demand (read+write) accesses
system.cpu0.dcache.demand_accesses::total       890281                       # number of demand (read+write) accesses
system.cpu0.dcache.overall_accesses::cpu0.data       890281                       # number of overall (read+write) accesses
system.cpu0.dcache.overall_accesses::total       890281                       # number of overall (read+write) accesses
system.cpu0.dcache.ReadReq_miss_rate::cpu0.data     0.602697                       # miss rate for ReadReq accesses
system.cpu0.dcache.ReadReq_miss_rate::total     0.602697                       # miss rate for ReadReq accesses
system.cpu0.dcache.WriteReq_miss_rate::cpu0.data     0.039612                       # miss rate for WriteReq accesses
system.cpu0.dcache.WriteReq_miss_rate::total     0.039612                       # miss rate for WriteReq accesses
system.cpu0.dcache.demand_miss_rate::cpu0.data     0.585308                       # miss rate for demand accesses
system.cpu0.dcache.demand_miss_rate::total     0.585308                       # miss rate for demand accesses
system.cpu0.dcache.overall_miss_rate::cpu0.data     0.585308                       # miss rate for overall accesses
system.cpu0.dcache.overall_miss_rate::total     0.585308                       # miss rate for overall accesses
system.cpu0.dcache.ReadReq_avg_miss_latency::cpu0.data 66888.834615                       # average ReadReq miss latency
system.cpu0.dcache.ReadReq_avg_miss_latency::total 66888.834615                       # average ReadReq miss latency
system.cpu0.dcache.WriteReq_avg_miss_latency::cpu0.data 36712.121212                       # average WriteReq miss latency
system.cpu0.dcache.WriteReq_avg_miss_latency::total 36712.121212                       # average WriteReq miss latency
system.cpu0.dcache.demand_avg_miss_latency::cpu0.data 66825.769686                       # average overall miss latency
[...]
system.l2.ReadExReq_miss_latency::cpu0.data     28463000                       # number of ReadExReq miss cycles
system.l2.ReadExReq_miss_latency::total      28463000                       # number of ReadExReq miss cycles
system.l2.ReadSharedReq_miss_latency::cpu0.data  17595765000                       # number of ReadSharedReq miss cycles
system.l2.ReadSharedReq_miss_latency::total  17595765000                       # number of ReadSharedReq miss cycles
system.l2.demand_miss_latency::cpu0.data  17624228000                       # number of demand (read+write) miss cycles
system.l2.demand_miss_latency::total      17624228000                       # number of demand (read+write) miss cycles
system.l2.overall_miss_latency::cpu0.data  17624228000                       # number of overall miss cycles
system.l2.overall_miss_latency::total     17624228000                       # number of overall miss cycles
system.l2.WritebackDirty_accesses::writebacks         2960                       # number of WritebackDirty accesses(hits+misses)
system.l2.WritebackDirty_accesses::total         2960                       # number of WritebackDirty accesses(hits+misses)
system.l2.WritebackClean_accesses::writebacks            2                       # number of WritebackClean accesses(hits+misses)
system.l2.WritebackClean_accesses::total            2                       # number of WritebackClean accesses(hits+misses)
system.l2.ReadExReq_accesses::cpu0.data          1088                       # number of ReadExReq accesses(hits+misses)
system.l2.ReadExReq_accesses::total              1088                       # number of ReadExReq accesses(hits+misses)
system.l2.ReadCleanReq_accesses::cpu0.inst            2                       # number of ReadCleanReq accesses(hits+misses)
system.l2.ReadCleanReq_accesses::total              2                       # number of ReadCleanReq accesses(hits+misses)
system.l2.ReadSharedReq_accesses::cpu0.data       294171                       # number of ReadSharedReq accesses(hits+misses)
system.l2.ReadSharedReq_accesses::total        294171                       # number of ReadSharedReq accesses(hits+misses)
system.l2.demand_accesses::cpu0.inst                2                       # number of demand (read+write) accesses
system.l2.demand_accesses::cpu0.data           295259                       # number of demand (read+write) accesses
system.l2.demand_accesses::total               295261                       # number of demand (read+write) accesses
system.l2.overall_accesses::cpu0.inst               2                       # number of overall (read+write) accesses
system.l2.overall_accesses::cpu0.data          295259                       # number of overall (read+write) accesses
system.l2.overall_accesses::total              295261                       # number of overall (read+write) accesses
system.l2.ReadExReq_miss_rate::cpu0.data     0.247243                       # miss rate for ReadExReq accesses
system.l2.ReadExReq_miss_rate::total         0.247243                       # miss rate for ReadExReq accesses
system.l2.ReadSharedReq_miss_rate::cpu0.data     0.628505                       # miss rate for ReadSharedReq accesses
system.l2.ReadSharedReq_miss_rate::total     0.628505                       # miss rate for ReadSharedReq accesses
system.l2.demand_miss_rate::cpu0.data        0.627100                       # miss rate for demand accesses
system.l2.demand_miss_rate::total            0.627096                       # miss rate for demand accesses
system.l2.overall_miss_rate::cpu0.data       0.627100                       # miss rate for overall accesses
system.l2.overall_miss_rate::total           0.627096                       # miss rate for overall accesses
system.l2.ReadExReq_avg_miss_latency::cpu0.data 105810.408922                       # average ReadExReq miss latency
system.l2.ReadExReq_avg_miss_latency::total 105810.408922                       # average ReadExReq miss latency
system.l2.ReadSharedReq_avg_miss_latency::cpu0.data 95169.859591                       # average ReadSharedReq miss latency
system.l2.ReadSharedReq_avg_miss_latency::total 95169.859591                       # average ReadSharedReq miss latency
system.l2.demand_avg_miss_latency::cpu0.data 95185.318405                       # average overall miss latency
system.l2.demand_avg_miss_latency::total 95185.318405                       # average overall miss latency
system.l2.overall_avg_miss_latency::cpu0.data 95185.318405                       # average overall miss latency
system.l2.overall_avg_miss_latency::total 95185.318405                       # average overall miss latency
system.l2.blocked_cycles::no_mshrs                  0                       # number of cycles access was blocked
system.l2.blocked_cycles::no_targets                0                       # number of cycles access was blocked
system.l2.blocked::no_mshrs                         0                       # number of cycles access was blocked
system.l2.blocked::no_targets                       0                       # number of cycles access was blocked
system.l2.avg_blocked_cycles::no_mshrs            nan                       # average number of cycles each access was blocked
system.l2.avg_blocked_cycles::no_targets          nan                       # average number of cycles each access was blocked
system.l2.writebacks::writebacks                  381                       # number of writebacks
system.l2.writebacks::total                       381                       # number of writebacks
system.l2.ReadExReq_mshr_misses::cpu0.data          269                       # number of ReadExReq MSHR misses
system.l2.ReadExReq_mshr_misses::total            269                       # number of ReadExReq MSHR misses
system.l2.ReadSharedReq_mshr_misses::cpu0.data       184888                       # number of ReadSharedReq MSHR misses
system.l2.ReadSharedReq_mshr_misses::total       184888                       # number of ReadSharedReq MSHR misses
system.l2.demand_mshr_misses::cpu0.data        185157                       # number of demand (read+write) MSHR misses
system.l2.demand_mshr_misses::total            185157                       # number of demand (read+write) MSHR misses
system.l2.overall_mshr_misses::cpu0.data       185157                       # number of overall MSHR misses
system.l2.overall_mshr_misses::total           185157                       # number of overall MSHR misses
system.l2.ReadExReq_mshr_miss_latency::cpu0.data     25773000                       # number of ReadExReq MSHR miss cycles
system.l2.ReadExReq_mshr_miss_latency::total     25773000                       # number of ReadExReq MSHR miss cycles
system.l2.ReadSharedReq_mshr_miss_latency::cpu0.data  15746865000                       # number of ReadSharedReq MSHR miss cycles
system.l2.ReadSharedReq_mshr_miss_latency::total  15746865000                       # number of ReadSharedReq MSHR miss cycles
system.l2.demand_mshr_miss_latency::cpu0.data  15772638000                       # number of demand (read+write) MSHR miss cycles
system.l2.demand_mshr_miss_latency::total  15772638000                       # number of demand (read+write) MSHR miss cycles
system.l2.overall_mshr_miss_latency::cpu0.data  15772638000                       # number of overall MSHR miss cycles
system.l2.overall_mshr_miss_latency::total  15772638000                       # number of overall MSHR miss cycles
system.l2.ReadExReq_mshr_miss_rate::cpu0.data     0.247243                       # mshr miss rate for ReadExReq accesses
system.l2.ReadExReq_mshr_miss_rate::total     0.247243                       # mshr miss rate for ReadExReq accesses
system.l2.ReadSharedReq_mshr_miss_rate::cpu0.data     0.628505                       # mshr miss rate for ReadSharedReq accesses
system.l2.ReadSharedReq_mshr_miss_rate::total     0.628505                       # mshr miss rate for ReadSharedReq accesses
system.l2.demand_mshr_miss_rate::cpu0.data     0.627100                       # mshr miss rate for demand accesses
system.l2.demand_mshr_miss_rate::total       0.627096                       # mshr miss rate for demand accesses
system.l2.overall_mshr_miss_rate::cpu0.data     0.627100                       # mshr miss rate for overall accesses
system.l2.overall_mshr_miss_rate::total      0.627096                       # mshr miss rate for overall accesses
system.l2.ReadExReq_avg_mshr_miss_latency::cpu0.data 95810.408922                       # average ReadExReq mshr miss latency
system.l2.ReadExReq_avg_mshr_miss_latency::total 95810.408922                       # average ReadExReq mshr miss latency
system.l2.ReadSharedReq_avg_mshr_miss_latency::cpu0.data 85169.751417                       # average ReadSharedReq mshr miss latency
system.l2.ReadSharedReq_avg_mshr_miss_latency::total 85169.751417                       # average ReadSharedReq mshr miss latency
system.l2.demand_avg_mshr_miss_latency::cpu0.data 85185.210389                       # average overall mshr miss latency
system.l2.demand_avg_mshr_miss_latency::total 85185.210389                       # average overall mshr miss latency
system.l2.overall_avg_mshr_miss_latency::cpu0.data 85185.210389                       # average overall mshr miss latency
system.l2.overall_avg_mshr_miss_latency::total 85185.210389                       # average overall mshr miss latency
system.membus.snoop_filter.tot_requests        370312                       # Total number of requests made to the snoop filter.
system.membus.snoop_filter.hit_single_requests       185157                       # Number of requests hitting in the snoop filter with a single holder of the requested data.
system.membus.snoop_filter.hit_multi_requests            0                       # Number of requests hitting in the snoop filter with multiple (>1) holders of the requested data.
system.membus.snoop_filter.tot_snoops               0                       # Total number of snoops made to the snoop filter.
system.membus.snoop_filter.hit_single_snoops            0                       # Number of snoops hitting in the snoop filter with a single holder of the requested data.
system.membus.snoop_filter.hit_multi_snoops            0                       # Number of snoops hitting in the snoop filter with multiple (>1) holders of the requested data.
system.membus.pwrStateResidencyTicks::UNDEFINED  15267344125                       # Cumulative time (in ticks) in various power states
system.membus.trans_dist::ReadResp             184890                       # Transaction distribution
system.membus.trans_dist::WritebackDirty          381                       # Transaction distribution
system.membus.trans_dist::CleanEvict           184774                       # Transaction distribution
system.membus.trans_dist::ReadExReq               269                       # Transaction distribution
system.membus.trans_dist::ReadExResp              269                       # Transaction distribution
system.membus.trans_dist::ReadSharedReq        184888                       # Transaction distribution
system.membus.pkt_count_system.l2.mem_side::system.mem_ctrls.port       555471                       # Packet count per connected master and slave (bytes)
system.membus.pkt_count_system.l2.mem_side::total       555471                       # Packet count per connected master and slave (bytes)
system.membus.pkt_count::total                 555471                       # Packet count per connected master and slave (bytes)
system.membus.pkt_size_system.l2.mem_side::system.mem_ctrls.port     11874560                       # Cumulative packet size per connected master and slave (bytes)
system.membus.pkt_size_system.l2.mem_side::total     11874560                       # Cumulative packet size per connected master and slave (bytes)
system.membus.pkt_size::total                11874560                       # Cumulative packet size per connected master and slave (bytes)
system.membus.snoops                                0                       # Total snoops (count)
system.membus.snoopTraffic                          0                       # Total snoop traffic (bytes)
system.membus.snoop_fanout::samples            185157                       # Request fanout histogram
system.membus.snoop_fanout::mean                    0                       # Request fanout histogram
system.membus.snoop_fanout::stdev                   0                       # Request fanout histogram
system.membus.snoop_fanout::underflows              0      0.00%      0.00% # Request fanout histogram
system.membus.snoop_fanout::0                  185157    100.00%    100.00% # Request fanout histogram
system.membus.snoop_fanout::1                       0      0.00%    100.00% # Request fanout histogram
system.membus.snoop_fanout::overflows               0      0.00%    100.00% # Request fanout histogram
system.membus.snoop_fanout::min_value               0                       # Request fanout histogram
system.membus.snoop_fanout::max_value               0                       # Request fanout histogram
system.membus.snoop_fanout::total              185157                       # Request fanout histogram
system.membus.reqLayer8.occupancy           434385500                       # Layer occupancy (ticks)
system.membus.reqLayer8.utilization               2.8                       # Layer utilization (%)
system.membus.respLayer1.occupancy         1003166000                       # Layer occupancy (ticks)
system.membus.respLayer1.utilization              6.6                       # Layer utilization (%)
system.tol2bus.snoop_filter.tot_requests       590523                       # Total number of requests made to the snoop filter.
system.tol2bus.snoop_filter.hit_single_requests       295260                       # Number of requests hitting in the snoop filter with a single holder of the requested data.
system.tol2bus.snoop_filter.hit_multi_requests          364                       # Number of requests hitting in the snoop filter with multiple (>1) holders of the requested data.
system.tol2bus.snoop_filter.tot_snoops              5                       # Total number of snoops made to the snoop filter.
system.tol2bus.snoop_filter.hit_single_snoops            5                       # Number of snoops hitting in the snoop filter with a single holder of the requested data.
system.tol2bus.snoop_filter.hit_multi_snoops            0                       # Number of snoops hitting in the snoop filter with multiple (>1) holders of the requested data.
system.tol2bus.pwrStateResidencyTicks::UNDEFINED  15267344125                       # Cumulative time (in ticks) in various power states
system.tol2bus.trans_dist::ReadResp            294174                       # Transaction distribution
system.tol2bus.trans_dist::WritebackDirty         3341                       # Transaction distribution
system.tol2bus.trans_dist::WritebackClean            2                       # Transaction distribution
system.tol2bus.trans_dist::CleanEvict          477080                       # Transaction distribution
system.tol2bus.trans_dist::ReadExReq             1088                       # Transaction distribution
system.tol2bus.trans_dist::ReadExResp            1088                       # Transaction distribution
system.tol2bus.trans_dist::ReadCleanReq             2                       # Transaction distribution
system.tol2bus.trans_dist::ReadSharedReq       294171                       # Transaction distribution
system.tol2bus.pkt_count_system.cpu0.icache.mem_side::system.l2.cpu_side            6                       # Packet count per connected master and slave (bytes)
system.tol2bus.pkt_count_system.cpu0.dcache.mem_side::system.l2.cpu_side       885779                       # Packet count per connected master and slave (bytes)
system.tol2bus.pkt_count::total                885785                       # Packet count per connected master and slave (bytes)
system.tol2bus.pkt_size_system.cpu0.icache.mem_side::system.l2.cpu_side          256                       # Cumulative packet size per connected master and slave (bytes)
system.tol2bus.pkt_size_system.cpu0.dcache.mem_side::system.l2.cpu_side     19086080                       # Cumulative packet size per connected master and slave (bytes)
system.tol2bus.pkt_size::total               19086336                       # Cumulative packet size per connected master and slave (bytes)
system.tol2bus.snoops                          185161                       # Total snoops (count)
system.tol2bus.snoopTraffic                     24384                       # Total snoop traffic (bytes)
system.tol2bus.snoop_fanout::samples           480422                       # Request fanout histogram
system.tol2bus.snoop_fanout::mean            0.000764                       # Request fanout histogram
system.tol2bus.snoop_fanout::stdev           0.027628                       # Request fanout histogram
system.tol2bus.snoop_fanout::underflows             0      0.00%      0.00% # Request fanout histogram
system.tol2bus.snoop_fanout::0                 480055     99.92%     99.92% # Request fanout histogram
system.tol2bus.snoop_fanout::1                    367      0.08%    100.00% # Request fanout histogram
system.tol2bus.snoop_fanout::2                      0      0.00%    100.00% # Request fanout histogram
system.tol2bus.snoop_fanout::3                      0      0.00%    100.00% # Request fanout histogram
system.tol2bus.snoop_fanout::4                      0      0.00%    100.00% # Request fanout histogram
system.tol2bus.snoop_fanout::5                      0      0.00%    100.00% # Request fanout histogram
system.tol2bus.snoop_fanout::6                      0      0.00%    100.00% # Request fanout histogram
system.tol2bus.snoop_fanout::7                      0      0.00%    100.00% # Request fanout histogram
system.tol2bus.snoop_fanout::8                      0      0.00%    100.00% # Request fanout histogram
system.tol2bus.snoop_fanout::9                      0      0.00%    100.00% # Request fanout histogram
system.tol2bus.snoop_fanout::10                     0      0.00%    100.00% # Request fanout histogram
system.tol2bus.snoop_fanout::11                     0      0.00%    100.00% # Request fanout histogram
system.tol2bus.snoop_fanout::12                     0      0.00%    100.00% # Request fanout histogram
system.tol2bus.snoop_fanout::13                     0      0.00%    100.00% # Request fanout histogram
system.tol2bus.snoop_fanout::14                     0      0.00%    100.00% # Request fanout histogram
system.tol2bus.snoop_fanout::15                     0      0.00%    100.00% # Request fanout histogram
system.tol2bus.snoop_fanout::16                     0      0.00%    100.00% # Request fanout histogram
system.tol2bus.snoop_fanout::overflows              0      0.00%    100.00% # Request fanout histogram
system.tol2bus.snoop_fanout::min_value              0                       # Request fanout histogram
system.tol2bus.snoop_fanout::max_value              1                       # Request fanout histogram
system.tol2bus.snoop_fanout::total             480422                       # Request fanout histogram
system.tol2bus.reqLayer0.occupancy          298223500                       # Layer occupancy (ticks)
system.tol2bus.reqLayer0.utilization              2.0                       # Layer utilization (%)
system.tol2bus.respLayer0.occupancy              3000                       # Layer occupancy (ticks)
system.tol2bus.respLayer0.utilization             0.0                       # Layer utilization (%)
system.tol2bus.respLayer1.occupancy         442890000                       # Layer occupancy (ticks)
system.tol2bus.respLayer1.utilization             2.9                       # Layer utilization (%)

---------- End Simulation Statistics   ----------
