
---------- Begin Simulation Statistics ----------
sim_seconds                                  0.015267                       # Number of seconds simulated
sim_ticks                                 15267344125                       # Number of ticks simulated
final_tick                               1190852841750                       # Number of ticks from beginning of simulation (restored from checkpoints and never reset)
sim_freq                                 1000000000000                       # Frequency of simulated ticks
host_inst_rate                               23153136                       # Simulator instruction rate (inst/s)
host_op_rate                                 42604069                       # Simulator op (including micro ops) rate (op/s)
host_tick_rate                              134902949                       # Simulator tick rate (ticks/s)
host_mem_usage                                2332072                       # Number of bytes of host memory used
host_seconds                                   113.17                       # Real time elapsed on the host
sim_insts                                  2620304714                       # Number of instructions simulated
sim_ops                                    4821621361                       # Number of ops (including micro ops) simulated
system.voltage_domain.voltage                       1                       # Voltage in Volts
system.clk_domain.clock                          1000                       # Clock period in ticks
system.mem_ctrls.pwrStateResidencyTicks::UNDEFINED  15267344125                       # Cumulative time (in ticks) in various power states
system.mem_ctrls.bytes_read::cpu0.inst           3264                       # Number of bytes read from this memory
system.mem_ctrls.bytes_read::cpu0.data       17397440                       # Number of bytes read from this memory
system.mem_ctrls.bytes_read::total           17400704                       # Number of bytes read from this memory
system.mem_ctrls.bytes_inst_read::cpu0.inst         3264                       # Number of instructions bytes read from this memory
system.mem_ctrls.bytes_inst_read::total          3264                       # Number of instructions bytes read from this memory
system.mem_ctrls.bytes_written::writebacks      1539840                       # Number of bytes written to this memory
system.mem_ctrls.bytes_written::total         1539840                       # Number of bytes written to this memory
system.mem_ctrls.num_reads::cpu0.inst              51                       # Number of read requests responded to by this memory
system.mem_ctrls.num_reads::cpu0.data          271835                       # Number of read requests responded to by this memory
system.mem_ctrls.num_reads::total              271886                       # Number of read requests responded to by this memory
system.mem_ctrls.num_writes::writebacks         24060                       # Number of write requests responded to by this memory
system.mem_ctrls.num_writes::total              24060                       # Number of write requests responded to by this memory
system.mem_ctrls.bw_read::cpu0.inst            213790                       # Total read bandwidth from this memory (bytes/s)
system.mem_ctrls.bw_read::cpu0.data        1139519739                       # Total read bandwidth from this memory (bytes/s)
system.mem_ctrls.bw_read::total            1139733529                       # Total read bandwidth from this memory (bytes/s)
system.mem_ctrls.bw_inst_read::cpu0.inst       213790                       # Instruction read bandwidth from this memory (bytes/s)
system.mem_ctrls.bw_inst_read::total           213790                       # Instruction read bandwidth from this memory (bytes/s)
system.mem_ctrls.bw_write::writebacks       100858407                       # Write bandwidth from this memory (bytes/s)
system.mem_ctrls.bw_write::total            100858407                       # Write bandwidth from this memory (bytes/s)
system.mem_ctrls.bw_total::writebacks       100858407                       # Total bandwidth to/from this memory (bytes/s)
system.mem_ctrls.bw_total::cpu0.inst           213790                       # Total bandwidth to/from this memory (bytes/s)
system.mem_ctrls.bw_total::cpu0.data       1139519739                       # Total bandwidth to/from this memory (bytes/s)
system.mem_ctrls.bw_total::total           1240591936                       # Total bandwidth to/from this memory (bytes/s)
system.mem_ctrls.readReqs                      271885                       # Number of read requests accepted
system.mem_ctrls.writeReqs                      24060                       # Number of write requests accepted
system.mem_ctrls.readBursts                    271885                       # Number of DRAM read bursts, including those serviced by the write queue
system.mem_ctrls.writeBursts                    24060                       # Number of DRAM write bursts, including those merged in the write queue
system.mem_ctrls.bytesReadDRAM               17400640                       # Total number of bytes read from DRAM
system.mem_ctrls.bytesReadWrQ                       0                       # Total number of bytes read from write queue
system.mem_ctrls.bytesWritten                 1539328                       # Total number of bytes written to DRAM
system.mem_ctrls.bytesReadSys                17400640                       # Total read bytes from the system interface side
system.mem_ctrls.bytesWrittenSys              1539840                       # Total written bytes from the system interface side
system.mem_ctrls.servicedByWrQ                      0                       # Number of DRAM read bursts serviced by the write queue
system.mem_ctrls.mergedWrBursts                     0                       # Number of DRAM write bursts merged with an existing one
system.mem_ctrls.neitherReadNorWriteReqs            0                       # Number of requests that are neither read nor write
system.mem_ctrls.perBankRdBursts::0             16918                       # Per bank write bursts
system.mem_ctrls.perBankRdBursts::1             16928                       # Per bank write bursts
system.mem_ctrls.perBankRdBursts::2             17047                       # Per bank write bursts
system.mem_ctrls.perBankRdBursts::3             17048                       # Per bank write bursts
system.mem_ctrls.perBankRdBursts::4             17043                       # Per bank write bursts
system.mem_ctrls.perBankRdBursts::5             16999                       # Per bank write bursts
system.mem_ctrls.perBankRdBursts::6             17033                       # Per bank write bursts
system.mem_ctrls.perBankRdBursts::7             17028                       # Per bank write bursts
system.mem_ctrls.perBankRdBursts::8             17057                       # Per bank write bursts
system.mem_ctrls.perBankRdBursts::9             17024                       # Per bank write bursts
system.mem_ctrls.perBankRdBursts::10            17024                       # Per bank write bursts
system.mem_ctrls.perBankRdBursts::11            17028                       # Per bank write bursts
system.mem_ctrls.perBankRdBursts::12            16942                       # Per bank write bursts
system.mem_ctrls.perBankRdBursts::13            16901                       # Per bank write bursts
system.mem_ctrls.perBankRdBursts::14            16909                       # Per bank write bursts
system.mem_ctrls.perBankRdBursts::15            16956                       # Per bank write bursts
system.mem_ctrls.perBankWrBursts::0              1425                       # Per bank write bursts
system.mem_ctrls.perBankWrBursts::1              1436                       # Per bank write bursts
system.mem_ctrls.perBankWrBursts::2              1538                       # Per bank write bursts
system.mem_ctrls.perBankWrBursts::3              1555                       # Per bank write bursts
system.mem_ctrls.perBankWrBursts::4              1536                       # Per bank write bursts
system.mem_ctrls.perBankWrBursts::5              1539                       # Per bank write bursts
system.mem_ctrls.perBankWrBursts::6              1538                       # Per bank write bursts
system.mem_ctrls.perBankWrBursts::7              1546                       # Per bank write bursts
system.mem_ctrls.perBankWrBursts::8              1579                       # Per bank write bursts
system.mem_ctrls.perBankWrBursts::9              1537                       # Per bank write bursts
system.mem_ctrls.perBankWrBursts::10             1536                       # Per bank write bursts
system.mem_ctrls.perBankWrBursts::11             1537                       # Per bank write bursts
system.mem_ctrls.perBankWrBursts::12             1467                       # Per bank write bursts
system.mem_ctrls.perBankWrBursts::13             1409                       # Per bank write bursts
system.mem_ctrls.perBankWrBursts::14             1416                       # Per bank write bursts
system.mem_ctrls.perBankWrBursts::15             1458                       # Per bank write bursts
system.mem_ctrls.numRdRetry                         0                       # Number of times read queue was full causing retry
system.mem_ctrls.numWrRetry                         0                       # Number of times write queue was full causing retry
system.mem_ctrls.totGap                   15267308500                       # Total gap between requests
system.mem_ctrls.readPktSize::0                     0                       # Read request sizes (log2)
system.mem_ctrls.readPktSize::1                     0                       # Read request sizes (log2)
system.mem_ctrls.readPktSize::2                     0                       # Read request sizes (log2)
system.mem_ctrls.readPktSize::3                     0                       # Read request sizes (log2)
system.mem_ctrls.readPktSize::4                     0                       # Read request sizes (log2)
system.mem_ctrls.readPktSize::5                     0                       # Read request sizes (log2)
system.mem_ctrls.readPktSize::6                271885                       # Read request sizes (log2)
system.mem_ctrls.writePktSize::0                    0                       # Write request sizes (log2)
system.mem_ctrls.writePktSize::1                    0                       # Write request sizes (log2)
system.mem_ctrls.writePktSize::2                    0                       # Write request sizes (log2)
system.mem_ctrls.writePktSize::3                    0                       # Write request sizes (log2)
system.mem_ctrls.writePktSize::4                    0                       # Write request sizes (log2)
system.mem_ctrls.writePktSize::5                    0                       # Write request sizes (log2)
system.mem_ctrls.writePktSize::6                24060                       # Write request sizes (log2)
system.mem_ctrls.rdQLenPdf::0                  148115                       # What read queue length does an incoming req see
system.mem_ctrls.rdQLenPdf::1                  123739                       # What read queue length does an incoming req see
system.mem_ctrls.rdQLenPdf::2                      22                       # What read queue length does an incoming req see
system.mem_ctrls.rdQLenPdf::3                       7                       # What read queue length does an incoming req see
system.mem_ctrls.rdQLenPdf::4                       2                       # What read queue length does an incoming req see
system.mem_ctrls.rdQLenPdf::5                       0                       # What read queue length does an incoming req see
system.mem_ctrls.rdQLenPdf::6                       0                       # What read queue length does an incoming req see
system.mem_ctrls.rdQLenPdf::7                       0                       # What read queue length does an incoming req see
system.mem_ctrls.rdQLenPdf::8                       0                       # What read queue length does an incoming req see
system.mem_ctrls.rdQLenPdf::9                       0                       # What read queue length does an incoming req see
system.mem_ctrls.rdQLenPdf::10                      0                       # What read queue length does an incoming req see
system.mem_ctrls.rdQLenPdf::11                      0                       # What read queue length does an incoming req see
system.mem_ctrls.rdQLenPdf::12                      0                       # What read queue length does an incoming req see
system.mem_ctrls.rdQLenPdf::13                      0                       # What read queue length does an incoming req see
system.mem_ctrls.rdQLenPdf::14                      0                       # What read queue length does an incoming req see
system.mem_ctrls.rdQLenPdf::15                      0                       # What read queue length does an incoming req see
system.mem_ctrls.rdQLenPdf::16                      0                       # What read queue length does an incoming req see
system.mem_ctrls.rdQLenPdf::17                      0                       # What read queue length does an incoming req see
system.mem_ctrls.rdQLenPdf::18                      0                       # What read queue length does an incoming req see
system.mem_ctrls.rdQLenPdf::19                      0                       # What read queue length does an incoming req see
system.mem_ctrls.rdQLenPdf::20                      0                       # What read queue length does an incoming req see
system.mem_ctrls.rdQLenPdf::21                      0                       # What read queue length does an incoming req see
system.mem_ctrls.rdQLenPdf::22                      0                       # What read queue length does an incoming req see
system.mem_ctrls.rdQLenPdf::23                      0                       # What read queue length does an incoming req see
system.mem_ctrls.rdQLenPdf::24                      0                       # What read queue length does an incoming req see
system.mem_ctrls.rdQLenPdf::25                      0                       # What read queue length does an incoming req see
system.mem_ctrls.rdQLenPdf::26                      0                       # What read queue length does an incoming req see
system.mem_ctrls.rdQLenPdf::27                      0                       # What read queue length does an incoming req see
system.mem_ctrls.rdQLenPdf::28                      0                       # What read queue length does an incoming req see
system.mem_ctrls.rdQLenPdf::29                      0                       # What read queue length does an incoming req see
system.mem_ctrls.rdQLenPdf::30                      0                       # What read queue length does an incoming req see
system.mem_ctrls.rdQLenPdf::31                      0                       # What read queue length does an incoming req see
system.mem_ctrls.wrQLenPdf::0                       0                       # What write queue length does an incoming req see
system.mem_ctrls.wrQLenPdf::1                       0                       # What write queue length does an incoming req see
system.mem_ctrls.wrQLenPdf::2                       0                       # What write queue length does an incoming req see
system.mem_ctrls.wrQLenPdf::3                       0                       # What write queue length does an incoming req see
system.mem_ctrls.wrQLenPdf::4                       0                       # What write queue length does an incoming req see
system.mem_ctrls.wrQLenPdf::5                       0                       # What write queue length does an incoming req see
system.mem_ctrls.wrQLenPdf::6                       0                       # What write queue length does an incoming req see
system.mem_ctrls.wrQLenPdf::7                       0                       # What write queue length does an incoming req see
system.mem_ctrls.wrQLenPdf::8                       0                       # What write queue length does an incoming req see
system.mem_ctrls.wrQLenPdf::9                       0                       # What write queue length does an incoming req see
system.mem_ctrls.wrQLenPdf::10                      0                       # What write queue length does an incoming req see
system.mem_ctrls.wrQLenPdf::11                      0                       # What write queue length does an incoming req see
system.mem_ctrls.wrQLenPdf::12                      0                       # What write queue length does an incoming req see
system.mem_ctrls.wrQLenPdf::13                      0                       # What write queue length does an incoming req see
system.mem_ctrls.wrQLenPdf::14                      0                       # What write queue length does an incoming req see
system.mem_ctrls.wrQLenPdf::15                      1                       # What write queue length does an incoming req see
system.mem_ctrls.wrQLenPdf::16                      1                       # What write queue length does an incoming req see
system.mem_ctrls.wrQLenPdf::17                    643                       # What write queue length does an incoming req see
system.mem_ctrls.wrQLenPdf::18                   1522                       # What write queue length does an incoming req see
system.mem_ctrls.wrQLenPdf::19                   1504                       # What write queue length does an incoming req see
system.mem_ctrls.wrQLenPdf::20                   1504                       # What write queue length does an incoming req see
system.mem_ctrls.wrQLenPdf::21                   1504                       # What write queue length does an incoming req see
system.mem_ctrls.wrQLenPdf::22                   1504                       # What write queue length does an incoming req see
system.mem_ctrls.wrQLenPdf::23                   1506                       # What write queue length does an incoming req see
system.mem_ctrls.wrQLenPdf::24                   1509                       # What write queue length does an incoming req see
system.mem_ctrls.wrQLenPdf::25                   1519                       # What write queue length does an incoming req see
system.mem_ctrls.wrQLenPdf::26                   1505                       # What write queue length does an incoming req see
system.mem_ctrls.wrQLenPdf::27                   1505                       # What write queue length does an incoming req see
system.mem_ctrls.wrQLenPdf::28                   1675                       # What write queue length does an incoming req see
system.mem_ctrls.wrQLenPdf::29                   1951                       # What write queue length does an incoming req see
system.mem_ctrls.wrQLenPdf::30                   1510                       # What write queue length does an incoming req see
system.mem_ctrls.wrQLenPdf::31                   1532                       # What write queue length does an incoming req see
system.mem_ctrls.wrQLenPdf::32                   1658                       # What write queue length does an incoming req see
system.mem_ctrls.wrQLenPdf::33                      7                       # What write queue length does an incoming req see
system.mem_ctrls.wrQLenPdf::34                      0                       # What write queue length does an incoming req see
system.mem_ctrls.wrQLenPdf::35                      0                       # What write queue length does an incoming req see
system.mem_ctrls.wrQLenPdf::36                      0                       # What write queue length does an incoming req see
system.mem_ctrls.wrQLenPdf::37                      0                       # What write queue length does an incoming req see
system.mem_ctrls.wrQLenPdf::38                      0                       # What write queue length does an incoming req see
system.mem_ctrls.wrQLenPdf::39                      0                       # What write queue length does an incoming req see
system.mem_ctrls.wrQLenPdf::40                      0                       # What write queue length does an incoming req see
system.mem_ctrls.wrQLenPdf::41                      0                       # What write queue length does an incoming req see
system.mem_ctrls.wrQLenPdf::42                      0                       # What write queue length does an incoming req see
system.mem_ctrls.wrQLenPdf::43                      0                       # What write queue length does an incoming req see
system.mem_ctrls.wrQLenPdf::44                      0                       # What write queue length does an incoming req see
system.mem_ctrls.wrQLenPdf::45                      0                       # What write queue length does an incoming req see
system.mem_ctrls.wrQLenPdf::46                      0                       # What write queue length does an incoming req see
system.mem_ctrls.wrQLenPdf::47                      0                       # What write queue length does an incoming req see
system.mem_ctrls.wrQLenPdf::48                      0                       # What write queue length does an incoming req see
system.mem_ctrls.wrQLenPdf::49                      0                       # What write queue length does an incoming req see
system.mem_ctrls.wrQLenPdf::50                      0                       # What write queue length does an incoming req see
system.mem_ctrls.wrQLenPdf::51                      0                       # What write queue length does an incoming req see
system.mem_ctrls.wrQLenPdf::52                      0                       # What write queue length does an incoming req see
system.mem_ctrls.wrQLenPdf::53                      0                       # What write queue length does an incoming req see
system.mem_ctrls.wrQLenPdf::54                      0                       # What write queue length does an incoming req see
system.mem_ctrls.wrQLenPdf::55                      0                       # What write queue length does an incoming req see
system.mem_ctrls.wrQLenPdf::56                      0                       # What write queue length does an incoming req see
system.mem_ctrls.wrQLenPdf::57                      0                       # What write queue length does an incoming req see
system.mem_ctrls.wrQLenPdf::58                      0                       # What write queue length does an incoming req see
system.mem_ctrls.wrQLenPdf::59                      0                       # What write queue length does an incoming req see
system.mem_ctrls.wrQLenPdf::60                      0                       # What write queue length does an incoming req see
system.mem_ctrls.wrQLenPdf::61                      0                       # What write queue length does an incoming req see
system.mem_ctrls.wrQLenPdf::62                      0                       # What write queue length does an incoming req see
system.mem_ctrls.wrQLenPdf::63                      0                       # What write queue length does an incoming req see
system.mem_ctrls.bytesPerActivate::samples        20503                       # Bytes accessed per row activation
system.mem_ctrls.bytesPerActivate::mean    923.787543                       # Bytes accessed per row activation
system.mem_ctrls.bytesPerActivate::gmean   869.115334                       # Bytes accessed per row activation
system.mem_ctrls.bytesPerActivate::stdev   228.156671                       # Bytes accessed per row activation
system.mem_ctrls.bytesPerActivate::0-127          156      0.76%      0.76% # Bytes accessed per row activation
system.mem_ctrls.bytesPerActivate::128-255          158      0.77%      1.53% # Bytes accessed per row activation
system.mem_ctrls.bytesPerActivate::256-383          779      3.80%      5.33% # Bytes accessed per row activation
system.mem_ctrls.bytesPerActivate::384-511          310      1.51%      6.84% # Bytes accessed per row activation
system.mem_ctrls.bytesPerActivate::512-639         1351      6.59%     13.43% # Bytes accessed per row activation
system.mem_ctrls.bytesPerActivate::640-767          253      1.23%     14.67% # Bytes accessed per row activation
system.mem_ctrls.bytesPerActivate::768-895          724      3.53%     18.20% # Bytes accessed per row activation
system.mem_ctrls.bytesPerActivate::896-1023          126      0.61%     18.81% # Bytes accessed per row activation
system.mem_ctrls.bytesPerActivate::1024-1151        16646     81.19%    100.00% # Bytes accessed per row activation
system.mem_ctrls.bytesPerActivate::total        20503                       # Bytes accessed per row activation
system.mem_ctrls.rdPerTurnAround::samples         1503                       # Reads before turning the bus around for writes
system.mem_ctrls.rdPerTurnAround::mean     260.348636                       # Reads before turning the bus around for writes
system.mem_ctrls.rdPerTurnAround::gmean     16.445809                       # Reads before turning the bus around for writes
system.mem_ctrls.rdPerTurnAround::stdev   9323.125604                       # Reads before turning the bus around for writes
system.mem_ctrls.rdPerTurnAround::0-16383         1502     99.93%     99.93% # Reads before turning the bus around for writes
system.mem_ctrls.rdPerTurnAround::360448-376831            1      0.07%    100.00% # Reads before turning the bus around for writes
system.mem_ctrls.rdPerTurnAround::total          1503                       # Reads before turning the bus around for writes
system.mem_ctrls.wrPerTurnAround::samples         1503                       # Writes before turning the bus around for reads
system.mem_ctrls.wrPerTurnAround::mean      16.002661                       # Writes before turning the bus around for reads
system.mem_ctrls.wrPerTurnAround::gmean     16.002376                       # Writes before turning the bus around for reads
system.mem_ctrls.wrPerTurnAround::stdev      0.103176                       # Writes before turning the bus around for reads
system.mem_ctrls.wrPerTurnAround::16             1502     99.93%     99.93% # Writes before turning the bus around for reads
system.mem_ctrls.wrPerTurnAround::20                1      0.07%    100.00% # Writes before turning the bus around for reads
system.mem_ctrls.wrPerTurnAround::total          1503                       # Writes before turning the bus around for reads
system.mem_ctrls.totQLat                   2639535750                       # Total ticks spent queuing
system.mem_ctrls.totMemAccLat              7737379500                       # Total ticks spent from burst creation until serviced by the DRAM
system.mem_ctrls.totBusLat                 1359425000                       # Total ticks spent in databus transfers
system.mem_ctrls.avgQLat                      9708.28                       # Average queueing delay per DRAM burst
system.mem_ctrls.avgBusLat                    5000.00                       # Average bus latency per DRAM burst
system.mem_ctrls.avgMemAccLat                28458.28                       # Average memory access latency per DRAM burst
system.mem_ctrls.avgRdBW                      1139.73                       # Average DRAM read bandwidth in MiByte/s
system.mem_ctrls.avgWrBW                       100.82                       # Average achieved write bandwidth in MiByte/s
system.mem_ctrls.avgRdBWSys                   1139.73                       # Average system read bandwidth in MiByte/s
system.mem_ctrls.avgWrBWSys                    100.86                       # Average system write bandwidth in MiByte/s
system.mem_ctrls.peakBW                      12800.00                       # Theoretical peak bandwidth in MiByte/s
system.mem_ctrls.busUtil                         9.69                       # Data bus utilization in percentage
system.mem_ctrls.busUtilRead                     8.90                       # Data bus utilization in percentage for reads
system.mem_ctrls.busUtilWrite                    0.79                       # Data bus utilization in percentage for writes
system.mem_ctrls.avgRdQLen                       1.72                       # Average read queue length when enqueuing
system.mem_ctrls.avgWrQLen                      25.04                       # Average write queue length when enqueuing
system.mem_ctrls.readRowHits                   253243                       # Number of row buffer hits during reads
system.mem_ctrls.writeRowHits                   22192                       # Number of row buffer hits during writes
system.mem_ctrls.readRowHitRate                 93.14                       # Row buffer hit rate for reads
system.mem_ctrls.writeRowHitRate                92.24                       # Row buffer hit rate for writes
system.mem_ctrls.avgGap                      51588.33                       # Average gap between requests
system.mem_ctrls.pageHitRate                    93.07                       # Row buffer hit rate, read and write combined
system.mem_ctrls_0.actEnergy                 73420620                       # Energy for activate commands per rank (pJ)
system.mem_ctrls_0.preEnergy                 39027780                       # Energy for precharge commands per rank (pJ)
system.mem_ctrls_0.readEnergy               971354160                       # Energy for read commands per rank (pJ)
system.mem_ctrls_0.writeEnergy               63229860                       # Energy for write commands per rank (pJ)
system.mem_ctrls_0.refreshEnergy         789197760.000000                       # Energy for refresh commands per rank (pJ)
system.mem_ctrls_0.actBackEnergy           1383949740                       # Energy for active background per rank (pJ)
system.mem_ctrls_0.preBackEnergy             74357280                       # Energy for precharge background per rank (pJ)
system.mem_ctrls_0.actPowerDownEnergy      2014323570                       # Energy for active power-down per rank (pJ)
system.mem_ctrls_0.prePowerDownEnergy       518001600                       # Energy for precharge power-down per rank (pJ)
system.mem_ctrls_0.selfRefreshEnergy       1581582420                       # Energy for self refresh per rank (pJ)
system.mem_ctrls_0.totalEnergy             7508516760                       # Total energy per rank (pJ)
system.mem_ctrls_0.averagePower            491.802418                       # Core power per rank (mW)
system.mem_ctrls_0.totalIdleTime          12038441250                       # Total Idle time Per DRAM Rank
system.mem_ctrls_0.memoryStateTime::IDLE     78548750                       # Time in different power states
system.mem_ctrls_0.memoryStateTime::REF     334668000                       # Time in different power states
system.mem_ctrls_0.memoryStateTime::SREF   6272230250                       # Time in different power states
system.mem_ctrls_0.memoryStateTime::PRE_PDN   1349006000                       # Time in different power states
system.mem_ctrls_0.memoryStateTime::ACT    2815658125                       # Time in different power states
system.mem_ctrls_0.memoryStateTime::ACT_PDN   4417233000                       # Time in different power states
system.mem_ctrls_1.actEnergy                 72963660                       # Energy for activate commands per rank (pJ)
system.mem_ctrls_1.preEnergy                 38781105                       # Energy for precharge commands per rank (pJ)
system.mem_ctrls_1.readEnergy               969904740                       # Energy for read commands per rank (pJ)
system.mem_ctrls_1.writeEnergy               62321580                       # Energy for write commands per rank (pJ)
system.mem_ctrls_1.refreshEnergy         787968480.000000                       # Energy for refresh commands per rank (pJ)
system.mem_ctrls_1.actBackEnergy           1383082200                       # Energy for active background per rank (pJ)
system.mem_ctrls_1.preBackEnergy             72173760                       # Energy for precharge background per rank (pJ)
system.mem_ctrls_1.actPowerDownEnergy      2010558720                       # Energy for active power-down per rank (pJ)
system.mem_ctrls_1.prePowerDownEnergy       518895360                       # Energy for precharge power-down per rank (pJ)
system.mem_ctrls_1.selfRefreshEnergy       1584826620                       # Energy for self refresh per rank (pJ)
system.mem_ctrls_1.totalEnergy             7501476225                       # Total energy per rank (pJ)
system.mem_ctrls_1.averagePower            491.341268                       # Core power per rank (mW)
system.mem_ctrls_1.totalIdleTime          12020797125                       # Total Idle time Per DRAM Rank
system.mem_ctrls_1.memoryStateTime::IDLE     74274000                       # Time in different power states
system.mem_ctrls_1.memoryStateTime::REF     334148000                       # Time in different power states
system.mem_ctrls_1.memoryStateTime::SREF   6285906125                       # Time in different power states
system.mem_ctrls_1.memoryStateTime::PRE_PDN   1351268250                       # Time in different power states
system.mem_ctrls_1.memoryStateTime::ACT    2812730250                       # Time in different power states
system.mem_ctrls_1.memoryStateTime::ACT_PDN   4409017500                       # Time in different power states
system.pwrStateResidencyTicks::UNDEFINED  15267344125                       # Cumulative time (in ticks) in various power states
system.cpu0.branchPred.lookups                4273598                       # Number of BP lookups
system.cpu0.branchPred.condPredicted          4273598                       # Number of conditional branches predicted
system.cpu0.branchPred.condIncorrect             6765                       # Number of conditional branches incorrect
system.cpu0.branchPred.BTBLookups             4272441                       # Number of BTB lookups
system.cpu0.branchPred.BTBHits                      0                       # Number of BTB hits
system.cpu0.branchPred.BTBCorrect                   0                       # Number of correct BTB predictions (this stat may not work properly.
system.cpu0.branchPred.BTBHitPct             0.000000                       # BTB Hit Percentage
system.cpu0.branchPred.usedRAS                   1051                       # Number of times the RAS was used to get a target.
system.cpu0.branchPred.RASInCorrect               227                       # Number of incorrect RAS predictions.
system.cpu0.branchPred.indirectLookups        4272441                       # Number of indirect predictor lookups.
system.cpu0.branchPred.indirectHits           4236902                       # Number of indirect target hits.
system.cpu0.branchPred.indirectMisses           35539                       # Number of indirect misses.
system.cpu0.branchPredindirectMispredicted         1240                       # Number of mispredicted indirect branches.
system.cpu_voltage_domain.voltage                   1                       # Voltage in Volts
system.cpu_clk_domain.clock                       500                       # Clock period in ticks
system.cpu0.dtb.walker.pwrStateResidencyTicks::UNDEFINED  15267344125                       # Cumulative time (in ticks) in various power states
system.cpu0.dtb.rdAccesses                    4363468                       # TLB accesses on read requests
system.cpu0.dtb.wrAccesses                     361982                       # TLB accesses on write requests
system.cpu0.dtb.rdMisses                         4102                       # TLB misses on read requests
system.cpu0.dtb.wrMisses                          745                       # TLB misses on write requests
system.cpu0.apic_clk_domain.clock                8000                       # Clock period in ticks
system.cpu0.interrupts.pwrStateResidencyTicks::UNDEFINED  15267344125                       # Cumulative time (in ticks) in various power states
system.cpu0.itb.walker.pwrStateResidencyTicks::UNDEFINED  15267344125                       # Cumulative time (in ticks) in various power states
system.cpu0.itb.rdAccesses                          0                       # TLB accesses on read requests
system.cpu0.itb.wrAccesses                      33530                       # TLB accesses on write requests
system.cpu0.itb.rdMisses                            0                       # TLB misses on read requests
system.cpu0.itb.wrMisses                           50                       # TLB misses on write requests
system.cpu0.workload.numSyscalls                   11                       # Number of system calls
system.cpu0.pwrStateResidencyTicks::ON    15267344125                       # Cumulative time (in ticks) in various power states
system.cpu0.numCycles                        30534688                       # number of cpu cycles simulated
system.cpu0.numWorkItemsStarted                     0                       # number of work items this cpu started
system.cpu0.numWorkItemsCompleted                   0                       # number of work items this cpu completed
system.cpu0.fetch.icacheStallCycles             38143                       # Number of cycles fetch is stalled on an Icache miss
system.cpu0.fetch.Insts                      21813399                       # Number of instructions fetch has processed
system.cpu0.fetch.Branches                    4273598                       # Number of branches that fetch encountered
system.cpu0.fetch.predictedBranches           4237953                       # Number of branches that fetch has predicted taken
system.cpu0.fetch.Cycles                     30484801                       # Number of cycles fetch has run and was not squashing or blocked
system.cpu0.fetch.SquashCycles                  13696                       # Number of cycles fetch has spent squashing
system.cpu0.fetch.MiscStallCycles                  43                       # Number of cycles fetch has spent waiting on interrupts, or bad addresses, or out of MSHRs
system.cpu0.fetch.PendingTrapStallCycles          274                       # Number of stall cycles due to pending traps
system.cpu0.fetch.CacheLines                    33481                       # Number of cache lines fetched
system.cpu0.fetch.IcacheSquashes                  448                       # Number of outstanding Icache misses that were squashed
system.cpu0.fetch.rateDist::samples          30530109                       # Number of instructions fetched each cycle (Total)
system.cpu0.fetch.rateDist::mean             1.269184                       # Number of instructions fetched each cycle (Total)
system.cpu0.fetch.rateDist::stdev            2.625486                       # Number of instructions fetched each cycle (Total)
system.cpu0.fetch.rateDist::underflows              0      0.00%      0.00% # Number of instructions fetched each cycle (Total)
system.cpu0.fetch.rateDist::0                22017882     72.12%     72.12% # Number of instructions fetched each cycle (Total)
system.cpu0.fetch.rateDist::1                 3043932      9.97%     82.09% # Number of instructions fetched each cycle (Total)
system.cpu0.fetch.rateDist::2                  371526      1.22%     83.31% # Number of instructions fetched each cycle (Total)
system.cpu0.fetch.rateDist::3                  435958      1.43%     84.73% # Number of instructions fetched each cycle (Total)
system.cpu0.fetch.rateDist::4                  370135      1.21%     85.95% # Number of instructions fetched each cycle (Total)
system.cpu0.fetch.rateDist::5                  328068      1.07%     87.02% # Number of instructions fetched each cycle (Total)
system.cpu0.fetch.rateDist::6                  483886      1.58%     88.61% # Number of instructions fetched each cycle (Total)
system.cpu0.fetch.rateDist::7                  200495      0.66%     89.26% # Number of instructions fetched each cycle (Total)
system.cpu0.fetch.rateDist::8                 3278227     10.74%    100.00% # Number of instructions fetched each cycle (Total)
system.cpu0.fetch.rateDist::overflows               0      0.00%    100.00% # Number of instructions fetched each cycle (Total)
system.cpu0.fetch.rateDist::min_value               0                       # Number of instructions fetched each cycle (Total)
system.cpu0.fetch.rateDist::max_value               8                       # Number of instructions fetched each cycle (Total)
system.cpu0.fetch.rateDist::total            30530109                       # Number of instructions fetched each cycle (Total)
system.cpu0.fetch.branchRate                 0.139959                       # Number of branch fetches per cycle
system.cpu0.fetch.rate                       0.714381                       # Number of inst fetches per cycle
system.cpu0.decode.IdleCycles                 1263383                       # Number of cycles decode is idle
system.cpu0.decode.BlockedCycles             24405462                       # Number of cycles decode is blocked
system.cpu0.decode.RunCycles                  1915452                       # Number of cycles decode is running
system.cpu0.decode.UnblockCycles              2938964                       # Number of cycles decode is unblocking
system.cpu0.decode.SquashCycles                  6848                       # Number of cycles decode is squashing
system.cpu0.decode.DecodedInsts              38579908                       # Number of instructions handled by decode
system.cpu0.rename.SquashCycles                  6848                       # Number of cycles rename is squashing
system.cpu0.rename.IdleCycles                 2316337                       # Number of cycles rename is idle
system.cpu0.rename.BlockCycles               17049789                       # Number of cycles rename is blocking
system.cpu0.rename.serializeStallCycles          1395                       # count of cycles rename stalled for serializing inst
system.cpu0.rename.RunCycles                  3801252                       # Number of cycles rename is running
system.cpu0.rename.UnblockCycles              7354488                       # Number of cycles rename is unblocking
system.cpu0.rename.RenamedInsts              38530658                       # Number of instructions processed by rename
system.cpu0.rename.ROBFullEvents              1434349                       # Number of times rename has blocked due to ROB full
system.cpu0.rename.IQFullEvents               2052911                       # Number of times rename has blocked due to IQ full
system.cpu0.rename.LQFullEvents                     9                       # Number of times rename has blocked due to LQ full
system.cpu0.rename.SQFullEvents               2965591                       # Number of times rename has blocked due to SQ full
system.cpu0.rename.RenamedOperands           63279462                       # Number of destination operands rename has renamed
system.cpu0.rename.RenameLookups             86520189                       # Number of register rename lookups that rename has made
system.cpu0.rename.int_rename_lookups        51781372                       # Number of integer rename lookups
system.cpu0.rename.fp_rename_lookups           183974                       # Number of floating rename lookups
system.cpu0.rename.CommittedMaps             62988370                       # Number of HB maps that are committed
system.cpu0.rename.UndoneMaps                  291080                       # Number of HB maps that are undone due to squashing
system.cpu0.rename.serializingInsts                39                       # count of serializing insts renamed
system.cpu0.rename.tempSerializingInsts            39                       # count of temporary serializing insts renamed
system.cpu0.rename.skidInsts                 14093803                       # count of insts added to the skid buffer
system.cpu0.memDep0.insertedLoads             4381313                       # Number of loads inserted to the mem dependence unit.
system.cpu0.memDep0.insertedStores             379483                       # Number of stores inserted to the mem dependence unit.
system.cpu0.memDep0.conflictingLoads              384                       # Number of conflicting loads.
system.cpu0.memDep0.conflictingStores             347                       # Number of conflicting stores.
system.cpu0.iq.iqInstsAdded                  38505400                       # Number of instructions added to the IQ (excludes non-spec)
system.cpu0.iq.iqNonSpecInstsAdded                365                       # Number of non-speculative instructions added to the IQ
system.cpu0.iq.iqInstsIssued                 38454221                       # Number of instructions issued
system.cpu0.iq.iqSquashedInstsIssued              670                       # Number of squashed instructions issued
system.cpu0.iq.iqSquashedInstsExamined         199515                       # Number of squashed instructions iterated over during squash; mainly for profiling
system.cpu0.iq.iqSquashedOperandsExamined       249146                       # Number of squashed operands that are examined and possibly removed from graph
system.cpu0.iq.iqSquashedNonSpecRemoved           324                       # Number of squashed non-spec instructions that were removed
system.cpu0.iq.issued_per_cycle::samples     30530109                       # Number of insts issued each cycle
system.cpu0.iq.issued_per_cycle::mean        1.259551                       # Number of insts issued each cycle
system.cpu0.iq.issued_per_cycle::stdev       1.965429                       # Number of insts issued each cycle
system.cpu0.iq.issued_per_cycle::underflows            0      0.00%      0.00% # Number of insts issued each cycle
system.cpu0.iq.issued_per_cycle::0           19489900     63.84%     63.84% # Number of insts issued each cycle
system.cpu0.iq.issued_per_cycle::1            1919314      6.29%     70.12% # Number of insts issued each cycle
system.cpu0.iq.issued_per_cycle::2            1423131      4.66%     74.79% # Number of insts issued each cycle
system.cpu0.iq.issued_per_cycle::3            2356957      7.72%     82.51% # Number of insts issued each cycle
system.cpu0.iq.issued_per_cycle::4            2286709      7.49%     90.00% # Number of insts issued each cycle
system.cpu0.iq.issued_per_cycle::5            1042216      3.41%     93.41% # Number of insts issued each cycle
system.cpu0.iq.issued_per_cycle::6            1835225      6.01%     99.42% # Number of insts issued each cycle
system.cpu0.iq.issued_per_cycle::7             164748      0.54%     99.96% # Number of insts issued each cycle
system.cpu0.iq.issued_per_cycle::8              11909      0.04%    100.00% # Number of insts issued each cycle
system.cpu0.iq.issued_per_cycle::overflows            0      0.00%    100.00% # Number of insts issued each cycle
system.cpu0.iq.issued_per_cycle::min_value            0                       # Number of insts issued each cycle
system.cpu0.iq.issued_per_cycle::max_value            8                       # Number of insts issued each cycle
system.cpu0.iq.issued_per_cycle::total       30530109                       # Number of insts issued each cycle
system.cpu0.iq.fu_full::No_OpClass                  0      0.00%      0.00% # attempts to use FU when none available
system.cpu0.iq.fu_full::IntAlu                   8009     73.39%     73.39% # attempts to use FU when none available
system.cpu0.iq.fu_full::IntMult                     0      0.00%     73.39% # attempts to use FU when none available
system.cpu0.iq.fu_full::IntDiv                      0      0.00%     73.39% # attempts to use FU when none available
system.cpu0.iq.fu_full::FloatAdd                   20      0.18%     73.57% # attempts to use FU when none available
system.cpu0.iq.fu_full::FloatCmp                    0      0.00%     73.57% # attempts to use FU when none available
system.cpu0.iq.fu_full::FloatCvt                    0      0.00%     73.57% # attempts to use FU when none available
system.cpu0.iq.fu_full::FloatMult                   0      0.00%     73.57% # attempts to use FU when none available
system.cpu0.iq.fu_full::FloatMultAcc                0      0.00%     73.57% # attempts to use FU when none available
system.cpu0.iq.fu_full::FloatDiv                    0      0.00%     73.57% # attempts to use FU when none available
system.cpu0.iq.fu_full::FloatMisc                   0      0.00%     73.57% # attempts to use FU when none available
system.cpu0.iq.fu_full::FloatSqrt                   0      0.00%     73.57% # attempts to use FU when none available
system.cpu0.iq.fu_full::SimdAdd                     0      0.00%     73.57% # attempts to use FU when none available
system.cpu0.iq.fu_full::SimdAddAcc                  0      0.00%     73.57% # attempts to use FU when none available
system.cpu0.iq.fu_full::SimdAlu                     0      0.00%     73.57% # attempts to use FU when none available
system.cpu0.iq.fu_full::SimdCmp                     0      0.00%     73.57% # attempts to use FU when none available
system.cpu0.iq.fu_full::SimdCvt                     0      0.00%     73.57% # attempts to use FU when none available
system.cpu0.iq.fu_full::SimdMisc                    0      0.00%     73.57% # attempts to use FU when none available
system.cpu0.iq.fu_full::SimdMult                    0      0.00%     73.57% # attempts to use FU when none available
system.cpu0.iq.fu_full::SimdMultAcc                 0      0.00%     73.57% # attempts to use FU when none available
system.cpu0.iq.fu_full::SimdShift                   0      0.00%     73.57% # attempts to use FU when none available
system.cpu0.iq.fu_full::SimdShiftAcc                0      0.00%     73.57% # attempts to use FU when none available
system.cpu0.iq.fu_full::SimdSqrt                    0      0.00%     73.57% # attempts to use FU when none available
system.cpu0.iq.fu_full::SimdFloatAdd                0      0.00%     73.57% # attempts to use FU when none available
system.cpu0.iq.fu_full::SimdFloatAlu                0      0.00%     73.57% # attempts to use FU when none available
system.cpu0.iq.fu_full::SimdFloatCmp                0      0.00%     73.57% # attempts to use FU when none available
system.cpu0.iq.fu_full::SimdFloatCvt                0      0.00%     73.57% # attempts to use FU when none available
system.cpu0.iq.fu_full::SimdFloatDiv                0      0.00%     73.57% # attempts to use FU when none available
system.cpu0.iq.fu_full::SimdFloatMisc               0      0.00%     73.57% # attempts to use FU when none available
system.cpu0.iq.fu_full::SimdFloatMult               0      0.00%     73.57% # attempts to use FU when none available
system.cpu0.iq.fu_full::SimdFloatMultAcc            0      0.00%     73.57% # attempts to use FU when none available
system.cpu0.iq.fu_full::SimdFloatSqrt               0      0.00%     73.57% # attempts to use FU when none available
system.cpu0.iq.fu_full::MemRead                   731      6.70%     80.27% # attempts to use FU when none available
system.cpu0.iq.fu_full::MemWrite                 2100     19.24%     99.51% # attempts to use FU when none available
system.cpu0.iq.fu_full::FloatMemRead                2      0.02%     99.53% # attempts to use FU when none available
system.cpu0.iq.fu_full::FloatMemWrite              51      0.47%    100.00% # attempts to use FU when none available
system.cpu0.iq.fu_full::IprAccess                   0      0.00%    100.00% # attempts to use FU when none available
system.cpu0.iq.fu_full::InstPrefetch                0      0.00%    100.00% # attempts to use FU when none available
system.cpu0.iq.FU_type_0::No_OpClass            17922      0.05%      0.05% # Type of FU issued
system.cpu0.iq.FU_type_0::IntAlu             33693274     87.62%     87.67% # Type of FU issued
system.cpu0.iq.FU_type_0::IntMult                5176      0.01%     87.68% # Type of FU issued
system.cpu0.iq.FU_type_0::IntDiv                   28      0.00%     87.68% # Type of FU issued
system.cpu0.iq.FU_type_0::FloatAdd               1013      0.00%     87.68% # Type of FU issued
system.cpu0.iq.FU_type_0::FloatCmp                  0      0.00%     87.68% # Type of FU issued
system.cpu0.iq.FU_type_0::FloatCvt                  0      0.00%     87.68% # Type of FU issued
system.cpu0.iq.FU_type_0::FloatMult                 0      0.00%     87.68% # Type of FU issued
system.cpu0.iq.FU_type_0::FloatMultAcc              0      0.00%     87.68% # Type of FU issued
system.cpu0.iq.FU_type_0::FloatDiv                  0      0.00%     87.68% # Type of FU issued
system.cpu0.iq.FU_type_0::FloatMisc                 0      0.00%     87.68% # Type of FU issued
system.cpu0.iq.FU_type_0::FloatSqrt                 0      0.00%     87.68% # Type of FU issued
system.cpu0.iq.FU_type_0::SimdAdd                   0      0.00%     87.68% # Type of FU issued
system.cpu0.iq.FU_type_0::SimdAddAcc                0      0.00%     87.68% # Type of FU issued
system.cpu0.iq.FU_type_0::SimdAlu                   0      0.00%     87.68% # Type of FU issued
system.cpu0.iq.FU_type_0::SimdCmp                   0      0.00%     87.68% # Type of FU issued
system.cpu0.iq.FU_type_0::SimdCvt                   0      0.00%     87.68% # Type of FU issued
system.cpu0.iq.FU_type_0::SimdMisc                  0      0.00%     87.68% # Type of FU issued
system.cpu0.iq.FU_type_0::SimdMult                  0      0.00%     87.68% # Type of FU issued
system.cpu0.iq.FU_type_0::SimdMultAcc               0      0.00%     87.68% # Type of FU issued
system.cpu0.iq.FU_type_0::SimdShift                 0      0.00%     87.68% # Type of FU issued
system.cpu0.iq.FU_type_0::SimdShiftAcc              0      0.00%     87.68% # Type of FU issued
system.cpu0.iq.FU_type_0::SimdSqrt                  0      0.00%     87.68% # Type of FU issued
system.cpu0.iq.FU_type_0::SimdFloatAdd              0      0.00%     87.68% # Type of FU issued
system.cpu0.iq.FU_type_0::SimdFloatAlu              0      0.00%     87.68% # Type of FU issued
system.cpu0.iq.FU_type_0::SimdFloatCmp              0      0.00%     87.68% # Type of FU issued
system.cpu0.iq.FU_type_0::SimdFloatCvt              0      0.00%     87.68% # Type of FU issued
system.cpu0.iq.FU_type_0::SimdFloatDiv              0      0.00%     87.68% # Type of FU issued
system.cpu0.iq.FU_type_0::SimdFloatMisc             0      0.00%     87.68% # Type of FU issued
system.cpu0.iq.FU_type_0::SimdFloatMult             0      0.00%     87.68% # Type of FU issued
system.cpu0.iq.FU_type_0::SimdFloatMultAcc            0      0.00%     87.68% # Type of FU issued
system.cpu0.iq.FU_type_0::SimdFloatSqrt             0      0.00%     87.68% # Type of FU issued
system.cpu0.iq.FU_type_0::MemRead             4374190     11.38%     99.06% # Type of FU issued
system.cpu0.iq.FU_type_0::MemWrite             181277      0.47%     99.53% # Type of FU issued
system.cpu0.iq.FU_type_0::FloatMemRead            212      0.00%     99.53% # Type of FU issued
system.cpu0.iq.FU_type_0::FloatMemWrite        181129      0.47%    100.00% # Type of FU issued
system.cpu0.iq.FU_type_0::IprAccess                 0      0.00%    100.00% # Type of FU issued
system.cpu0.iq.FU_type_0::InstPrefetch              0      0.00%    100.00% # Type of FU issued
system.cpu0.iq.FU_type_0::total              38454221                       # Type of FU issued
system.cpu0.iq.rate                          1.259362                       # Inst issue rate
system.cpu0.iq.fu_busy_cnt                      10913                       # FU busy when requested
system.cpu0.iq.fu_busy_rate                  0.000284                       # FU busy rate (busy events/executed inst)
system.cpu0.iq.int_inst_queue_reads         107085037                       # Number of integer instruction queue reads
system.cpu0.iq.int_inst_queue_writes         38521762                       # Number of integer instruction queue writes
system.cpu0.iq.int_inst_queue_wakeup_accesses     38230080                       # Number of integer instruction queue wakeup accesses
system.cpu0.iq.fp_inst_queue_reads             365097                       # Number of floating instruction queue reads
system.cpu0.iq.fp_inst_queue_writes            183573                       # Number of floating instruction queue writes
system.cpu0.iq.fp_inst_queue_wakeup_accesses       182427                       # Number of floating instruction queue wakeup accesses
system.cpu0.iq.vec_inst_queue_reads                 0                       # Number of vector instruction queue reads
system.cpu0.iq.vec_inst_queue_writes                0                       # Number of vector instruction queue writes
system.cpu0.iq.vec_inst_queue_wakeup_accesses            0                       # Number of vector instruction queue wakeup accesses
system.cpu0.iq.int_alu_accesses              38264643                       # Number of integer alu accesses
system.cpu0.iq.fp_alu_accesses                 182569                       # Number of floating point alu accesses
system.cpu0.iq.vec_alu_accesses                     0                       # Number of vector alu accesses
system.cpu0.iew.lsq.thread0.forwLoads             806                       # Number of loads that had data forwarded from stores
system.cpu0.iew.lsq.thread0.invAddrLoads            0                       # Number of loads ignored due to an invalid address
system.cpu0.iew.lsq.thread0.squashedLoads        36860                       # Number of loads squashed
system.cpu0.iew.lsq.thread0.ignoredResponses           22                       # Number of memory responses ignored because the instruction is squashed
system.cpu0.iew.lsq.thread0.memOrderViolation           59                       # Number of memory ordering violations
system.cpu0.iew.lsq.thread0.squashedStores        18949                       # Number of stores squashed
system.cpu0.iew.lsq.thread0.invAddrSwpfs            0                       # Number of software prefetches ignored due to an invalid address
system.cpu0.iew.lsq.thread0.blockedLoads            0                       # Number of blocked loads due to partial load-store forwarding
system.cpu0.iew.lsq.thread0.rescheduledLoads           13                       # Number of loads that were rescheduled
system.cpu0.iew.lsq.thread0.cacheBlocked          527                       # Number of times an access to memory failed due to the cache being blocked
system.cpu0.iew.iewIdleCycles                       0                       # Number of cycles IEW is idle
system.cpu0.iew.iewSquashCycles                  6848                       # Number of cycles IEW is squashing
system.cpu0.iew.iewBlockCycles               13851592                       # Number of cycles IEW is blocking
system.cpu0.iew.iewUnblockCycles              1955508                       # Number of cycles IEW is unblocking
system.cpu0.iew.iewDispatchedInsts           38505765                       # Number of instructions dispatched to IQ
system.cpu0.iew.iewDispSquashedInsts               63                       # Number of squashed instructions skipped by dispatch
system.cpu0.iew.iewDispLoadInsts              4381313                       # Number of dispatched load instructions
system.cpu0.iew.iewDispStoreInsts              379483                       # Number of dispatched store instructions
system.cpu0.iew.iewDispNonSpecInsts               144                       # Number of dispatched non-speculative instructions
system.cpu0.iew.iewIQFullEvents                124049                       # Number of times the IQ has become full, causing a stall
system.cpu0.iew.iewLSQFullEvents              1707444                       # Number of times the LSQ has become full, causing a stall
system.cpu0.iew.memOrderViolationEvents            59                       # Number of memory order violations
system.cpu0.iew.predictedTakenIncorrect          5563                       # Number of branches that were predicted taken incorrectly
system.cpu0.iew.predictedNotTakenIncorrect         1771                       # Number of branches that were predicted not taken incorrectly
system.cpu0.iew.branchMispredicts                7334                       # Number of branch mispredicts detected at execute
system.cpu0.iew.iewExecutedInsts             38419693                       # Number of executed instructions
system.cpu0.iew.iewExecLoadInsts              4363438                       # Number of load instructions executed
system.cpu0.iew.iewExecSquashedInsts            34528                       # Number of squashed instructions skipped in execute
system.cpu0.iew.exec_swp                            0                       # number of swp insts executed
system.cpu0.iew.exec_nop                            0                       # number of nop insts executed
system.cpu0.iew.exec_refs                     4725413                       # number of memory reference insts executed
system.cpu0.iew.exec_branches                 4240506                       # Number of branches executed
system.cpu0.iew.exec_stores                    361975                       # Number of stores executed
system.cpu0.iew.exec_rate                    1.258231                       # Inst execution rate
system.cpu0.iew.wb_sent                      38418362                       # cumulative count of insts sent to commit
system.cpu0.iew.wb_count                     38412507                       # cumulative count of insts written-back
system.cpu0.iew.wb_producers                 31446302                       # num instructions producing a value
system.cpu0.iew.wb_consumers                 45532841                       # num instructions consuming a value
system.cpu0.iew.wb_rate                      1.257996                       # insts written-back per cycle
system.cpu0.iew.wb_fanout                    0.690629                       # average fanout of values written-back
system.cpu0.commit.commitSquashedInsts         199545                       # The number of squashed insts skipped by commit
system.cpu0.commit.commitNonSpecStalls             41                       # The number of times commit has been forced to stall to communicate backwards
system.cpu0.commit.branchMispredicts             6807                       # The number of times a branch was mispredicted
system.cpu0.commit.committed_per_cycle::samples     30502312                       # Number of insts commited each cycle
system.cpu0.commit.committed_per_cycle::mean     1.255847                       # Number of insts commited each cycle
system.cpu0.commit.committed_per_cycle::stdev     2.048555                       # Number of insts commited each cycle
system.cpu0.commit.committed_per_cycle::underflows            0      0.00%      0.00% # Number of insts commited each cycle
system.cpu0.commit.committed_per_cycle::0     21637409     70.94%     70.94% # Number of insts commited each cycle
system.cpu0.commit.committed_per_cycle::1       464495      1.52%     72.46% # Number of insts commited each cycle
system.cpu0.commit.committed_per_cycle::2       124564      0.41%     72.87% # Number of insts commited each cycle
system.cpu0.commit.committed_per_cycle::3       197154      0.65%     73.51% # Number of insts commited each cycle
system.cpu0.commit.committed_per_cycle::4      3881877     12.73%     86.24% # Number of insts commited each cycle
system.cpu0.commit.committed_per_cycle::5      4028578     13.21%     99.45% # Number of insts commited each cycle
system.cpu0.commit.committed_per_cycle::6         5150      0.02%     99.47% # Number of insts commited each cycle
system.cpu0.commit.committed_per_cycle::7         4824      0.02%     99.48% # Number of insts commited each cycle
system.cpu0.commit.committed_per_cycle::8       158261      0.52%    100.00% # Number of insts commited each cycle
system.cpu0.commit.committed_per_cycle::overflows            0      0.00%    100.00% # Number of insts commited each cycle
system.cpu0.commit.committed_per_cycle::min_value            0                       # Number of insts commited each cycle
system.cpu0.commit.committed_per_cycle::max_value            8                       # Number of insts commited each cycle
system.cpu0.commit.committed_per_cycle::total     30502312                       # Number of insts commited each cycle
system.cpu0.commit.committedInsts            21520093                       # Number of instructions committed
system.cpu0.commit.committedOps              38306239                       # Number of ops (including micro ops) committed
system.cpu0.commit.swp_count                        0                       # Number of s/w prefetches committed
system.cpu0.commit.refs                       4704985                       # Number of memory references committed
system.cpu0.commit.loads                      4344451                       # Number of loads committed
system.cpu0.commit.membars                         20                       # Number of memory barriers committed
system.cpu0.commit.branches                   4228282                       # Number of branches committed
system.cpu0.commit.vec_insts                        0                       # Number of committed Vector instructions.
system.cpu0.commit.fp_insts                    181915                       # Number of committed floating point instructions.
system.cpu0.commit.int_insts                 38288175                       # Number of committed integer instructions.
system.cpu0.commit.function_calls                 334                       # Number of function calls committed.
system.cpu0.commit.op_class_0::No_OpClass        17365      0.05%      0.05% # Class of committed instruction
system.cpu0.commit.op_class_0::IntAlu        33578003     87.66%     87.70% # Class of committed instruction
system.cpu0.commit.op_class_0::IntMult           5164      0.01%     87.72% # Class of committed instruction
system.cpu0.commit.op_class_0::IntDiv              14      0.00%     87.72% # Class of committed instruction
system.cpu0.commit.op_class_0::FloatAdd           708      0.00%     87.72% # Class of committed instruction
system.cpu0.commit.op_class_0::FloatCmp             0      0.00%     87.72% # Class of committed instruction
system.cpu0.commit.op_class_0::FloatCvt             0      0.00%     87.72% # Class of committed instruction
system.cpu0.commit.op_class_0::FloatMult            0      0.00%     87.72% # Class of committed instruction
system.cpu0.commit.op_class_0::FloatMultAcc            0      0.00%     87.72% # Class of committed instruction
system.cpu0.commit.op_class_0::FloatDiv             0      0.00%     87.72% # Class of committed instruction
system.cpu0.commit.op_class_0::FloatMisc            0      0.00%     87.72% # Class of committed instruction
system.cpu0.commit.op_class_0::FloatSqrt            0      0.00%     87.72% # Class of committed instruction
system.cpu0.commit.op_class_0::SimdAdd              0      0.00%     87.72% # Class of committed instruction
system.cpu0.commit.op_class_0::SimdAddAcc            0      0.00%     87.72% # Class of committed instruction
system.cpu0.commit.op_class_0::SimdAlu              0      0.00%     87.72% # Class of committed instruction
system.cpu0.commit.op_class_0::SimdCmp              0      0.00%     87.72% # Class of committed instruction
system.cpu0.commit.op_class_0::SimdCvt              0      0.00%     87.72% # Class of committed instruction
system.cpu0.commit.op_class_0::SimdMisc             0      0.00%     87.72% # Class of committed instruction
system.cpu0.commit.op_class_0::SimdMult             0      0.00%     87.72% # Class of committed instruction
system.cpu0.commit.op_class_0::SimdMultAcc            0      0.00%     87.72% # Class of committed instruction
system.cpu0.commit.op_class_0::SimdShift            0      0.00%     87.72% # Class of committed instruction
system.cpu0.commit.op_class_0::SimdShiftAcc            0      0.00%     87.72% # Class of committed instruction
system.cpu0.commit.op_class_0::SimdSqrt             0      0.00%     87.72% # Class of committed instruction
system.cpu0.commit.op_class_0::SimdFloatAdd            0      0.00%     87.72% # Class of committed instruction
system.cpu0.commit.op_class_0::SimdFloatAlu            0      0.00%     87.72% # Class of committed instruction
system.cpu0.commit.op_class_0::SimdFloatCmp            0      0.00%     87.72% # Class of committed instruction
system.cpu0.commit.op_class_0::SimdFloatCvt            0      0.00%     87.72% # Class of committed instruction
system.cpu0.commit.op_class_0::SimdFloatDiv            0      0.00%     87.72% # Class of committed instruction
system.cpu0.commit.op_class_0::SimdFloatMisc            0      0.00%     87.72% # Class of committed instruction
system.cpu0.commit.op_class_0::SimdFloatMult            0      0.00%     87.72% # Class of committed instruction
system.cpu0.commit.op_class_0::SimdFloatMultAcc            0      0.00%     87.72% # Class of committed instruction
system.cpu0.commit.op_class_0::SimdFloatSqrt            0      0.00%     87.72% # Class of committed instruction
system.cpu0.commit.op_class_0::MemRead        4344359     11.34%     99.06% # Class of committed instruction
system.cpu0.commit.op_class_0::MemWrite        179518      0.47%     99.53% # Class of committed instruction
system.cpu0.commit.op_class_0::FloatMemRead           92      0.00%     99.53% # Class of committed instruction
system.cpu0.commit.op_class_0::FloatMemWrite       181016      0.47%    100.00% # Class of committed instruction
system.cpu0.commit.op_class_0::IprAccess            0      0.00%    100.00% # Class of committed instruction
system.cpu0.commit.op_class_0::InstPrefetch            0      0.00%    100.00% # Class of committed instruction
system.cpu0.commit.op_class_0::total         38306239                       # Class of committed instruction
system.cpu0.commit.bw_lim_events               158261                       # number cycles where commit BW limit reached
system.cpu0.rob.rob_reads                    68849835                       # The number of ROB reads
system.cpu0.rob.rob_writes                   77039534                       # The number of ROB writes
system.cpu0.timesIdled                             47                       # Number of times that the entire CPU went into an idle state and unscheduled itself
system.cpu0.idleCycles                           4579                       # Total number of cycles that the CPU has spent unscheduled due to idling
system.cpu0.committedInsts                   21520093                       # Number of Instructions Simulated
system.cpu0.committedOps                     38306239                       # Number of Ops (including micro ops) Simulated
system.cpu0.cpi                              1.418892                       # CPI: Cycles Per Instruction
system.cpu0.cpi_total                        1.418892                       # CPI: Total CPI of All Threads
system.cpu0.ipc                              0.704775                       # IPC: Instructions Per Cycle
system.cpu0.ipc_total                        0.704775                       # IPC: Total IPC of All Threads
system.cpu0.int_regfile_reads                51584988                       # number of integer regfile reads
system.cpu0.int_regfile_writes               33803760                       # number of integer regfile writes
system.cpu0.fp_regfile_reads                   183394                       # number of floating regfile reads
system.cpu0.fp_regfile_writes                    1158                       # number of floating regfile writes
system.cpu0.cc_regfile_reads                 21236266                       # number of cc regfile reads
system.cpu0.cc_regfile_writes                29348457                       # number of cc regfile writes
system.cpu0.misc_regfile_reads               13204664                       # number of misc regfile reads
system.cpu0.dcache.tags.pwrStateResidencyTicks::UNDEFINED  15267344125                       # Cumulative time (in ticks) in various power states
system.cpu0.dcache.tags.replacements           295937                       # number of replacements
system.cpu0.dcache.tags.tagsinuse                1024                       # Cycle average of tags in use
system.cpu0.dcache.tags.total_refs            1544599                       # Total number of references to valid blocks.
system.cpu0.dcache.tags.sampled_refs           295937                       # Sample count of references to valid blocks.
system.cpu0.dcache.tags.avg_refs             5.219351                       # Average number of references to valid blocks.
system.cpu0.dcache.tags.warmup_cycle                0                       # Cycle when the warmup percentage was hit.
system.cpu0.dcache.tags.occ_blocks::cpu0.data         1024                       # Average occupied blocks per requestor
system.cpu0.dcache.tags.occ_percent::cpu0.data            1                       # Average percentage of cache occupancy
system.cpu0.dcache.tags.occ_percent::total            1                       # Average percentage of cache occupancy
system.cpu0.dcache.tags.occ_task_id_blocks::1024         1024                       # Occupied blocks per task id
system.cpu0.dcache.tags.age_task_id_blocks_1024::0          202                       # Occupied blocks per task id
system.cpu0.dcache.tags.age_task_id_blocks_1024::1          822                       # Occupied blocks per task id
system.cpu0.dcache.tags.occ_task_id_percent::1024            1                       # Percentage of cache occupancy per task id
system.cpu0.dcache.tags.tag_accesses         19186249                       # Number of tag accesses
system.cpu0.dcache.tags.data_accesses        19186249                       # Number of data accesses
system.cpu0.dcache.pwrStateResidencyTicks::UNDEFINED  15267344125                       # Cumulative time (in ticks) in various power states
system.cpu0.dcache.ReadReq_hits::cpu0.data      1228732                       # number of ReadReq hits
system.cpu0.dcache.ReadReq_hits::total        1228732                       # number of ReadReq hits
system.cpu0.dcache.WriteReq_hits::cpu0.data       315867                       # number of WriteReq hits
system.cpu0.dcache.WriteReq_hits::total        315867                       # number of WriteReq hits
system.cpu0.dcache.demand_hits::cpu0.data      1544599                       # number of demand (read+write) hits
system.cpu0.dcache.demand_hits::total         1544599                       # number of demand (read+write) hits
system.cpu0.dcache.overall_hits::cpu0.data      1544599                       # number of overall hits
system.cpu0.dcache.overall_hits::total        1544599                       # number of overall hits
system.cpu0.dcache.ReadReq_misses::cpu0.data      3133310                       # number of ReadReq misses
system.cpu0.dcache.ReadReq_misses::total      3133310                       # number of ReadReq misses
system.cpu0.dcache.WriteReq_misses::cpu0.data        44669                       # number of WriteReq misses
system.cpu0.dcache.WriteReq_misses::total        44669                       # number of WriteReq misses
system.cpu0.dcache.demand_misses::cpu0.data      3177979                       # number of demand (read+write) misses
system.cpu0.dcache.demand_misses::total       3177979                       # number of demand (read+write) misses
system.cpu0.dcache.overall_misses::cpu0.data      3177979                       # number of overall misses
system.cpu0.dcache.overall_misses::total      3177979                       # number of overall misses
system.cpu0.dcache.ReadReq_miss_latency::cpu0.data 213821633000                       # number of ReadReq miss cycles
system.cpu0.dcache.ReadReq_miss_latency::total 213821633000                       # number of ReadReq miss cycles
system.cpu0.dcache.WriteReq_miss_latency::cpu0.data   2236647497                       # number of WriteReq miss cycles
system.cpu0.dcache.WriteReq_miss_latency::total   2236647497                       # number of WriteReq miss cycles
system.cpu0.dcache.demand_miss_latency::cpu0.data 216058280497                       # number of demand (read+write) miss cycles
system.cpu0.dcache.demand_miss_latency::total 216058280497                       # number of demand (read+write) miss cycles
system.cpu0.dcache.overall_miss_latency::cpu0.data 216058280497                       # number of overall miss cycles
system.cpu0.dcache.overall_miss_latency::total 216058280497                       # number of overall miss cycles
system.cpu0.dcache.ReadReq_accesses::cpu0.data      4362042                       # number of ReadReq accesses(hits+misses)
system.cpu0.dcache.ReadReq_accesses::total      4362042                       # number of ReadReq accesses(hits+misses)
system.cpu0.dcache.WriteReq_accesses::cpu0.data       360536                       # number of WriteReq accesses(hits+misses)
system.cpu0.dcache.WriteReq_accesses::total       360536                       # number of WriteReq accesses(hits+misses)
system.cpu0.dcache.demand_accesses::cpu0.data      4722578                       # number of demand (read+write) accesses
system.cpu0.dcache.demand_accesses::total      4722578                       # number of demand (read+write) accesses
system.cpu0.dcache.overall_accesses::cpu0.data      4722578                       # number of overall (read+write) accesses
system.cpu0.dcache.overall_accesses::total      4722578                       # number of overall (read+write) accesses
system.cpu0.dcache.ReadReq_miss_rate::cpu0.data     0.718313                       # miss rate for ReadReq accesses
system.cpu0.dcache.ReadReq_miss_rate::total     0.718313                       # miss rate for ReadReq accesses
system.cpu0.dcache.WriteReq_miss_rate::cpu0.data     0.123896                       # miss rate for WriteReq accesses
system.cpu0.dcache.WriteReq_miss_rate::total     0.123896                       # miss rate for WriteReq accesses
system.cpu0.dcache.demand_miss_rate::cpu0.data     0.672933                       # miss rate for demand accesses
system.cpu0.dcache.demand_miss_rate::total     0.672933                       # miss rate for demand accesses
system.cpu0.dcache.overall_miss_rate::cpu0.data     0.672933                       # miss rate for overall accesses
system.cpu0.dcache.overall_miss_rate::total     0.672933                       # miss rate for overall accesses
system.cpu0.dcache.ReadReq_avg_miss_latency::cpu0.data 68241.454883                       # average ReadReq miss latency
system.cpu0.dcache.ReadReq_avg_miss_latency::total 68241.454883                       # average ReadReq miss latency
system.cpu0.dcache.WriteReq_avg_miss_latency::cpu0.data 50071.582014                       # average WriteReq miss latency
system.cpu0.dcache.WriteReq_avg_miss_latency::total 50071.582014                       # average WriteReq miss latency
system.cpu0.dcache.demand_avg_miss_latency::cpu0.data 67986.062997                       # average overall miss latency
system.cpu0.dcache.demand_avg_miss_latency::total 67986.062997                       # average overall miss latency
system.cpu0.dcache.overall_avg_miss_latency::cpu0.data 67986.062997                       # average overall miss latency
system.cpu0.dcache.overall_avg_miss_latency::total 67986.062997                       # average overall miss latency
system.cpu0.dcache.blocked_cycles::no_mshrs         6148                       # number of cycles access was blocked
[...]
system.l2.ReadExReq_miss_rate::cpu0.data     0.537668                       # miss rate for ReadExReq accesses
system.l2.ReadExReq_miss_rate::total         0.537668                       # miss rate for ReadExReq accesses
system.l2.ReadCleanReq_miss_rate::cpu0.inst     0.369565                       # miss rate for ReadCleanReq accesses
system.l2.ReadCleanReq_miss_rate::total      0.369565                       # miss rate for ReadCleanReq accesses
system.l2.ReadSharedReq_miss_rate::cpu0.data     0.986258                       # miss rate for ReadSharedReq accesses
system.l2.ReadSharedReq_miss_rate::total     0.986258                       # miss rate for ReadSharedReq accesses
system.l2.demand_miss_rate::cpu0.inst        0.369565                       # miss rate for demand accesses
system.l2.demand_miss_rate::cpu0.data        0.918550                       # miss rate for demand accesses
system.l2.demand_miss_rate::total            0.918294                       # miss rate for demand accesses
system.l2.overall_miss_rate::cpu0.inst       0.369565                       # miss rate for overall accesses
system.l2.overall_miss_rate::cpu0.data       0.918550                       # miss rate for overall accesses
system.l2.overall_miss_rate::total           0.918294                       # miss rate for overall accesses
system.l2.ReadExReq_avg_miss_latency::cpu0.data 79447.868088                       # average ReadExReq miss latency
system.l2.ReadExReq_avg_miss_latency::total 79447.868088                       # average ReadExReq miss latency
system.l2.ReadCleanReq_avg_miss_latency::cpu0.inst 127039.215686                       # average ReadCleanReq miss latency
system.l2.ReadCleanReq_avg_miss_latency::total 127039.215686                       # average ReadCleanReq miss latency
system.l2.ReadSharedReq_avg_miss_latency::cpu0.data 79468.714818                       # average ReadSharedReq miss latency
system.l2.ReadSharedReq_avg_miss_latency::total 79468.714818                       # average ReadSharedReq miss latency
system.l2.demand_avg_miss_latency::cpu0.inst 127039.215686                       # average overall miss latency
system.l2.demand_avg_miss_latency::cpu0.data 79466.873043                       # average overall miss latency
system.l2.demand_avg_miss_latency::total 79475.796663                       # average overall miss latency
system.l2.overall_avg_miss_latency::cpu0.inst 127039.215686                       # average overall miss latency
system.l2.overall_avg_miss_latency::cpu0.data 79466.873043                       # average overall miss latency
system.l2.overall_avg_miss_latency::total 79475.796663                       # average overall miss latency
system.l2.blocked_cycles::no_mshrs                  0                       # number of cycles access was blocked
system.l2.blocked_cycles::no_targets                0                       # number of cycles access was blocked
system.l2.blocked::no_mshrs                         0                       # number of cycles access was blocked
system.l2.blocked::no_targets                       0                       # number of cycles access was blocked
system.l2.avg_blocked_cycles::no_mshrs            nan                       # average number of cycles each access was blocked
system.l2.avg_blocked_cycles::no_targets          nan                       # average number of cycles each access was blocked
system.l2.writebacks::writebacks                24060                       # number of writebacks
system.l2.writebacks::total                     24060                       # number of writebacks
system.l2.ReadExReq_mshr_misses::cpu0.data        24016                       # number of ReadExReq MSHR misses
system.l2.ReadExReq_mshr_misses::total          24016                       # number of ReadExReq MSHR misses
system.l2.ReadCleanReq_mshr_misses::cpu0.inst           51                       # number of ReadCleanReq MSHR misses
system.l2.ReadCleanReq_mshr_misses::total           51                       # number of ReadCleanReq MSHR misses
system.l2.ReadSharedReq_mshr_misses::cpu0.data       247817                       # number of ReadSharedReq MSHR misses
system.l2.ReadSharedReq_mshr_misses::total       247817                       # number of ReadSharedReq MSHR misses
system.l2.demand_mshr_misses::cpu0.inst            51                       # number of demand (read+write) MSHR misses
system.l2.demand_mshr_misses::cpu0.data        271833                       # number of demand (read+write) MSHR misses
system.l2.demand_mshr_misses::total            271884                       # number of demand (read+write) MSHR misses
system.l2.overall_mshr_misses::cpu0.inst           51                       # number of overall MSHR misses
system.l2.overall_mshr_misses::cpu0.data       271833                       # number of overall MSHR misses
system.l2.overall_mshr_misses::total           271884                       # number of overall MSHR misses
system.l2.ReadExReq_mshr_miss_latency::cpu0.data   1667860000                       # number of ReadExReq MSHR miss cycles
system.l2.ReadExReq_mshr_miss_latency::total   1667860000                       # number of ReadExReq MSHR miss cycles
system.l2.ReadCleanReq_mshr_miss_latency::cpu0.inst      5969000                       # number of ReadCleanReq MSHR miss cycles
system.l2.ReadCleanReq_mshr_miss_latency::total      5969000                       # number of ReadCleanReq MSHR miss cycles
system.l2.ReadSharedReq_mshr_miss_latency::cpu0.data  17215518500                       # number of ReadSharedReq MSHR miss cycles
system.l2.ReadSharedReq_mshr_miss_latency::total  17215518500                       # number of ReadSharedReq MSHR miss cycles
system.l2.demand_mshr_miss_latency::cpu0.inst      5969000                       # number of demand (read+write) MSHR miss cycles
system.l2.demand_mshr_miss_latency::cpu0.data  18883378500                       # number of demand (read+write) MSHR miss cycles
system.l2.demand_mshr_miss_latency::total  18889347500                       # number of demand (read+write) MSHR miss cycles
system.l2.overall_mshr_miss_latency::cpu0.inst      5969000                       # number of overall MSHR miss cycles
system.l2.overall_mshr_miss_latency::cpu0.data  18883378500                       # number of overall MSHR miss cycles
system.l2.overall_mshr_miss_latency::total  18889347500                       # number of overall MSHR miss cycles
system.l2.ReadExReq_mshr_miss_rate::cpu0.data     0.537668                       # mshr miss rate for ReadExReq accesses
system.l2.ReadExReq_mshr_miss_rate::total     0.537668                       # mshr miss rate for ReadExReq accesses
system.l2.ReadCleanReq_mshr_miss_rate::cpu0.inst     0.369565                       # mshr miss rate for ReadCleanReq accesses
system.l2.ReadCleanReq_mshr_miss_rate::total     0.369565                       # mshr miss rate for ReadCleanReq accesses
system.l2.ReadSharedReq_mshr_miss_rate::cpu0.data     0.986258                       # mshr miss rate for ReadSharedReq accesses
system.l2.ReadSharedReq_mshr_miss_rate::total     0.986258                       # mshr miss rate for ReadSharedReq accesses
system.l2.demand_mshr_miss_rate::cpu0.inst     0.369565                       # mshr miss rate for demand accesses
system.l2.demand_mshr_miss_rate::cpu0.data     0.918550                       # mshr miss rate for demand accesses
system.l2.demand_mshr_miss_rate::total       0.918294                       # mshr miss rate for demand accesses
system.l2.overall_mshr_miss_rate::cpu0.inst     0.369565                       # mshr miss rate for overall accesses
system.l2.overall_mshr_miss_rate::cpu0.data     0.918550                       # mshr miss rate for overall accesses
system.l2.overall_mshr_miss_rate::total      0.918294                       # mshr miss rate for overall accesses
system.l2.ReadExReq_avg_mshr_miss_latency::cpu0.data 69447.868088                       # average ReadExReq mshr miss latency
system.l2.ReadExReq_avg_mshr_miss_latency::total 69447.868088                       # average ReadExReq mshr miss latency
system.l2.ReadCleanReq_avg_mshr_miss_latency::cpu0.inst 117039.215686                       # average ReadCleanReq mshr miss latency
system.l2.ReadCleanReq_avg_mshr_miss_latency::total 117039.215686                       # average ReadCleanReq mshr miss latency
system.l2.ReadSharedReq_avg_mshr_miss_latency::cpu0.data 69468.674465                       # average ReadSharedReq mshr miss latency
system.l2.ReadSharedReq_avg_mshr_miss_latency::total 69468.674465                       # average ReadSharedReq mshr miss latency
system.l2.demand_avg_mshr_miss_latency::cpu0.inst 117039.215686                       # average overall mshr miss latency
system.l2.demand_avg_mshr_miss_latency::cpu0.data 69466.836256                       # average overall mshr miss latency
system.l2.demand_avg_mshr_miss_latency::total 69475.759883                       # average overall mshr miss latency
system.l2.overall_avg_mshr_miss_latency::cpu0.inst 117039.215686                       # average overall mshr miss latency
system.l2.overall_avg_mshr_miss_latency::cpu0.data 69466.836256                       # average overall mshr miss latency
system.l2.overall_avg_mshr_miss_latency::total 69475.759883                       # average overall mshr miss latency
system.membus.snoop_filter.tot_requests        543769                       # Total number of requests made to the snoop filter.
system.membus.snoop_filter.hit_single_requests       271884                       # Number of requests hitting in the snoop filter with a single holder of the requested data.
system.membus.snoop_filter.hit_multi_requests            0                       # Number of requests hitting in the snoop filter with multiple (>1) holders of the requested data.
system.membus.snoop_filter.tot_snoops               0                       # Total number of snoops made to the snoop filter.
system.membus.snoop_filter.hit_single_snoops            0                       # Number of snoops hitting in the snoop filter with a single holder of the requested data.
system.membus.snoop_filter.hit_multi_snoops            0                       # Number of snoops hitting in the snoop filter with multiple (>1) holders of the requested data.
system.membus.pwrStateResidencyTicks::UNDEFINED  15267344125                       # Cumulative time (in ticks) in various power states
system.membus.trans_dist::ReadResp             247870                       # Transaction distribution
system.membus.trans_dist::WritebackDirty        24060                       # Transaction distribution
system.membus.trans_dist::CleanEvict           247824                       # Transaction distribution
system.membus.trans_dist::ReadExReq             24016                       # Transaction distribution
system.membus.trans_dist::ReadExResp            24016                       # Transaction distribution
system.membus.trans_dist::ReadSharedReq        247869                       # Transaction distribution
system.membus.pkt_count_system.l2.mem_side::system.mem_ctrls.port       815655                       # Packet count per connected master and slave (bytes)
system.membus.pkt_count_system.l2.mem_side::total       815655                       # Packet count per connected master and slave (bytes)
system.membus.pkt_count::total                 815655                       # Packet count per connected master and slave (bytes)
system.membus.pkt_size_system.l2.mem_side::system.mem_ctrls.port     18940544                       # Cumulative packet size per connected master and slave (bytes)
system.membus.pkt_size_system.l2.mem_side::total     18940544                       # Cumulative packet size per connected master and slave (bytes)
system.membus.pkt_size::total                18940544                       # Cumulative packet size per connected master and slave (bytes)
system.membus.snoops                                0                       # Total snoops (count)
system.membus.snoopTraffic                          0                       # Total snoop traffic (bytes)
system.membus.snoop_fanout::samples            271885                       # Request fanout histogram
system.membus.snoop_fanout::mean                    0                       # Request fanout histogram
system.membus.snoop_fanout::stdev                   0                       # Request fanout histogram
system.membus.snoop_fanout::underflows              0      0.00%      0.00% # Request fanout histogram
system.membus.snoop_fanout::0                  271885    100.00%    100.00% # Request fanout histogram
system.membus.snoop_fanout::1                       0      0.00%    100.00% # Request fanout histogram
system.membus.snoop_fanout::overflows               0      0.00%    100.00% # Request fanout histogram
system.membus.snoop_fanout::min_value               0                       # Request fanout histogram
system.membus.snoop_fanout::max_value               0                       # Request fanout histogram
system.membus.snoop_fanout::total              271885                       # Request fanout histogram
system.membus.reqLayer8.occupancy           710693500                       # Layer occupancy (ticks)
system.membus.reqLayer8.utilization               4.7                       # Layer utilization (%)
system.membus.respLayer1.occupancy         1428591750                       # Layer occupancy (ticks)
system.membus.respLayer1.utilization              9.4                       # Layer utilization (%)
system.tol2bus.snoop_filter.tot_requests       592150                       # Total number of requests made to the snoop filter.
system.tol2bus.snoop_filter.hit_single_requests       296075                       # Number of requests hitting in the snoop filter with a single holder of the requested data.
system.tol2bus.snoop_filter.hit_multi_requests            5                       # Number of requests hitting in the snoop filter with multiple (>1) holders of the requested data.
system.tol2bus.snoop_filter.tot_snoops            107                       # Total number of snoops made to the snoop filter.
system.tol2bus.snoop_filter.hit_single_snoops          107                       # Number of snoops hitting in the snoop filter with a single holder of the requested data.
system.tol2bus.snoop_filter.hit_multi_snoops            0                       # Number of snoops hitting in the snoop filter with multiple (>1) holders of the requested data.
system.tol2bus.pwrStateResidencyTicks::UNDEFINED  15267344125                       # Cumulative time (in ticks) in various power states
system.tol2bus.trans_dist::ReadResp            251408                       # Transaction distribution
system.tol2bus.trans_dist::WritebackDirty        72201                       # Transaction distribution
system.tol2bus.trans_dist::WritebackClean          138                       # Transaction distribution
system.tol2bus.trans_dist::CleanEvict          495723                       # Transaction distribution
system.tol2bus.trans_dist::ReadExReq            44667                       # Transaction distribution
system.tol2bus.trans_dist::ReadExResp           44667                       # Transaction distribution
system.tol2bus.trans_dist::ReadCleanReq           138                       # Transaction distribution
system.tol2bus.trans_dist::ReadSharedReq       251270                       # Transaction distribution
system.tol2bus.pkt_count_system.cpu0.icache.mem_side::system.l2.cpu_side          414                       # Packet count per connected master and slave (bytes)
system.tol2bus.pkt_count_system.cpu0.dcache.mem_side::system.l2.cpu_side       887811                       # Packet count per connected master and slave (bytes)
system.tol2bus.pkt_count::total                888225                       # Packet count per connected master and slave (bytes)
system.tol2bus.pkt_size_system.cpu0.icache.mem_side::system.l2.cpu_side        17664                       # Cumulative packet size per connected master and slave (bytes)
system.tol2bus.pkt_size_system.cpu0.dcache.mem_side::system.l2.cpu_side     22020992                       # Cumulative packet size per connected master and slave (bytes)
system.tol2bus.pkt_size::total               22038656                       # Cumulative packet size per connected master and slave (bytes)
system.tol2bus.snoops                          271987                       # Total snoops (count)
system.tol2bus.snoopTraffic                   1539840                       # Total snoop traffic (bytes)
system.tol2bus.snoop_fanout::samples           568062                       # Request fanout histogram
system.tol2bus.snoop_fanout::mean            0.000197                       # Request fanout histogram
system.tol2bus.snoop_fanout::stdev           0.014040                       # Request fanout histogram
system.tol2bus.snoop_fanout::underflows             0      0.00%      0.00% # Request fanout histogram
system.tol2bus.snoop_fanout::0                 567950     99.98%     99.98% # Request fanout histogram
system.tol2bus.snoop_fanout::1                    112      0.02%    100.00% # Request fanout histogram
system.tol2bus.snoop_fanout::2                      0      0.00%    100.00% # Request fanout histogram
system.tol2bus.snoop_fanout::3                      0      0.00%    100.00% # Request fanout histogram
system.tol2bus.snoop_fanout::4                      0      0.00%    100.00% # Request fanout histogram
system.tol2bus.snoop_fanout::5                      0      0.00%    100.00% # Request fanout histogram
system.tol2bus.snoop_fanout::6                      0      0.00%    100.00% # Request fanout histogram
system.tol2bus.snoop_fanout::7                      0      0.00%    100.00% # Request fanout histogram
system.tol2bus.snoop_fanout::8                      0      0.00%    100.00% # Request fanout histogram
system.tol2bus.snoop_fanout::9                      0      0.00%    100.00% # Request fanout histogram
system.tol2bus.snoop_fanout::10                     0      0.00%    100.00% # Request fanout histogram
system.tol2bus.snoop_fanout::11                     0      0.00%    100.00% # Request fanout histogram
system.tol2bus.snoop_fanout::12                     0      0.00%    100.00% # Request fanout histogram
system.tol2bus.snoop_fanout::13                     0      0.00%    100.00% # Request fanout histogram
system.tol2bus.snoop_fanout::14                     0      0.00%    100.00% # Request fanout histogram
system.tol2bus.snoop_fanout::15                     0      0.00%    100.00% # Request fanout histogram
system.tol2bus.snoop_fanout::16                     0      0.00%    100.00% # Request fanout histogram
system.tol2bus.snoop_fanout::overflows              0      0.00%    100.00% # Request fanout histogram
system.tol2bus.snoop_fanout::min_value              0                       # Request fanout histogram
system.tol2bus.snoop_fanout::max_value              1                       # Request fanout histogram
system.tol2bus.snoop_fanout::total             568062                       # Request fanout histogram
system.tol2bus.reqLayer0.occupancy          344354000                       # Layer occupancy (ticks)
system.tol2bus.reqLayer0.utilization              2.3                       # Layer utilization (%)
system.tol2bus.respLayer0.occupancy            207000                       # Layer occupancy (ticks)
system.tol2bus.respLayer0.utilization             0.0                       # Layer utilization (%)
system.tol2bus.respLayer1.occupancy         443905500                       # Layer occupancy (ticks)
system.tol2bus.respLayer1.utilization             2.9                       # Layer utilization (%)

---------- End Simulation Statistics   ----------
