
---------- Begin Simulation Statistics ----------
sim_seconds                                  0.015267                       # Number of seconds simulated
sim_ticks                                 15267344125                       # Number of ticks simulated
final_tick                               2229032242250                       # Number of ticks from beginning of simulation (restored from checkpoints and never reset)
sim_freq                                 1000000000000                       # Frequency of simulated ticks
host_inst_rate                               20026055                       # Simulator instruction rate (inst/s)
host_op_rate                                 36501435                       # Simulator op (including micro ops) rate (op/s)
host_tick_rate                               61275714                       # Simulator tick rate (ticks/s)
host_mem_usage                                2332656                       # Number of bytes of host memory used
host_seconds                                   249.16                       # Real time elapsed on the host
sim_insts                                  4989654518                       # Number of instructions simulated
sim_ops                                    9094630048                       # Number of ops (including micro ops) simulated
system.voltage_domain.voltage                       1                       # Voltage in Volts
system.clk_domain.clock                          1000                       # Clock period in ticks
system.mem_ctrls.pwrStateResidencyTicks::UNDEFINED  15267344125                       # Cumulative time (in ticks) in various power states
system.mem_ctrls.bytes_read::cpu0.inst            128                       # Number of bytes read from this memory
system.mem_ctrls.bytes_read::cpu0.data         978240                       # Number of bytes read from this memory
system.mem_ctrls.bytes_read::total             978368                       # Number of bytes read from this memory
system.mem_ctrls.bytes_inst_read::cpu0.inst          128                       # Number of instructions bytes read from this memory
system.mem_ctrls.bytes_inst_read::total           128                       # Number of instructions bytes read from this memory
system.mem_ctrls.bytes_written::writebacks       970112                       # Number of bytes written to this memory
system.mem_ctrls.bytes_written::total          970112                       # Number of bytes written to this memory
system.mem_ctrls.num_reads::cpu0.inst               2                       # Number of read requests responded to by this memory
system.mem_ctrls.num_reads::cpu0.data           15285                       # Number of read requests responded to by this memory
system.mem_ctrls.num_reads::total               15287                       # Number of read requests responded to by this memory
system.mem_ctrls.num_writes::writebacks         15158                       # Number of write requests responded to by this memory
system.mem_ctrls.num_writes::total              15158                       # Number of write requests responded to by this memory
system.mem_ctrls.bw_read::cpu0.inst              8384                       # Total read bandwidth from this memory (bytes/s)
system.mem_ctrls.bw_read::cpu0.data          64074013                       # Total read bandwidth from this memory (bytes/s)
system.mem_ctrls.bw_read::total              64082397                       # Total read bandwidth from this memory (bytes/s)
system.mem_ctrls.bw_inst_read::cpu0.inst         8384                       # Instruction read bandwidth from this memory (bytes/s)
system.mem_ctrls.bw_inst_read::total             8384                       # Instruction read bandwidth from this memory (bytes/s)
system.mem_ctrls.bw_write::writebacks        63541634                       # Write bandwidth from this memory (bytes/s)
system.mem_ctrls.bw_write::total             63541634                       # Write bandwidth from this memory (bytes/s)
system.mem_ctrls.bw_total::writebacks        63541634                       # Total bandwidth to/from this memory (bytes/s)
system.mem_ctrls.bw_total::cpu0.inst             8384                       # Total bandwidth to/from this memory (bytes/s)
system.mem_ctrls.bw_total::cpu0.data         64074013                       # Total bandwidth to/from this memory (bytes/s)
system.mem_ctrls.bw_total::total            127624031                       # Total bandwidth to/from this memory (bytes/s)
system.mem_ctrls.readReqs                       15287                       # Number of read requests accepted
system.mem_ctrls.writeReqs                      15158                       # Number of write requests accepted
system.mem_ctrls.readBursts                     15287                       # Number of DRAM read bursts, including those serviced by the write queue
system.mem_ctrls.writeBursts                    15158                       # Number of DRAM write bursts, including those merged in the write queue
system.mem_ctrls.bytesReadDRAM                 978112                       # Total number of bytes read from DRAM
system.mem_ctrls.bytesReadWrQ                     256                       # Total number of bytes read from write queue
system.mem_ctrls.bytesWritten                  970816                       # Total number of bytes written to DRAM
system.mem_ctrls.bytesReadSys                  978368                       # Total read bytes from the system interface side
system.mem_ctrls.bytesWrittenSys               970112                       # Total written bytes from the system interface side
system.mem_ctrls.servicedByWrQ                      4                       # Number of DRAM read bursts serviced by the write queue
system.mem_ctrls.mergedWrBursts                     0                       # Number of DRAM write bursts merged with an existing one
system.mem_ctrls.neitherReadNorWriteReqs            0                       # Number of requests that are neither read nor write
system.mem_ctrls.perBankRdBursts::0              1027                       # Per bank write bursts
system.mem_ctrls.perBankRdBursts::1               853                       # Per bank write bursts
system.mem_ctrls.perBankRdBursts::2               785                       # Per bank write bursts
system.mem_ctrls.perBankRdBursts::3               977                       # Per bank write bursts
system.mem_ctrls.perBankRdBursts::4               960                       # Per bank write bursts
system.mem_ctrls.perBankRdBursts::5               956                       # Per bank write bursts
system.mem_ctrls.perBankRdBursts::6               976                       # Per bank write bursts
system.mem_ctrls.perBankRdBursts::7               941                       # Per bank write bursts
system.mem_ctrls.perBankRdBursts::8               836                       # Per bank write bursts
system.mem_ctrls.perBankRdBursts::9               888                       # Per bank write bursts
system.mem_ctrls.perBankRdBursts::10              994                       # Per bank write bursts
system.mem_ctrls.perBankRdBursts::11              964                       # Per bank write bursts
system.mem_ctrls.perBankRdBursts::12              939                       # Per bank write bursts
system.mem_ctrls.perBankRdBursts::13             1055                       # Per bank write bursts
system.mem_ctrls.perBankRdBursts::14             1042                       # Per bank write bursts
system.mem_ctrls.perBankRdBursts::15             1090                       # Per bank write bursts
system.mem_ctrls.perBankWrBursts::0              1008                       # Per bank write bursts
system.mem_ctrls.perBankWrBursts::1               847                       # Per bank write bursts
system.mem_ctrls.perBankWrBursts::2               800                       # Per bank write bursts
system.mem_ctrls.perBankWrBursts::3               974                       # Per bank write bursts
system.mem_ctrls.perBankWrBursts::4               948                       # Per bank write bursts
system.mem_ctrls.perBankWrBursts::5               948                       # Per bank write bursts
system.mem_ctrls.perBankWrBursts::6               965                       # Per bank write bursts
system.mem_ctrls.perBankWrBursts::7               936                       # Per bank write bursts
system.mem_ctrls.perBankWrBursts::8               828                       # Per bank write bursts
system.mem_ctrls.perBankWrBursts::9               877                       # Per bank write bursts
system.mem_ctrls.perBankWrBursts::10              976                       # Per bank write bursts
system.mem_ctrls.perBankWrBursts::11              958                       # Per bank write bursts
system.mem_ctrls.perBankWrBursts::12              937                       # Per bank write bursts
system.mem_ctrls.perBankWrBursts::13             1048                       # Per bank write bursts
system.mem_ctrls.perBankWrBursts::14             1039                       # Per bank write bursts
system.mem_ctrls.perBankWrBursts::15             1080                       # Per bank write bursts
system.mem_ctrls.numRdRetry                         0                       # Number of times read queue was full causing retry
system.mem_ctrls.numWrRetry                         0                       # Number of times write queue was full causing retry
system.mem_ctrls.totGap                   15265397000                       # Total gap between requests
system.mem_ctrls.readPktSize::0                     0                       # Read request sizes (log2)
system.mem_ctrls.readPktSize::1                     0                       # Read request sizes (log2)
system.mem_ctrls.readPktSize::2                     0                       # Read request sizes (log2)
system.mem_ctrls.readPktSize::3                     0                       # Read request sizes (log2)
system.mem_ctrls.readPktSize::4                     0                       # Read request sizes (log2)
system.mem_ctrls.readPktSize::5                     0                       # Read request sizes (log2)
system.mem_ctrls.readPktSize::6                 15287                       # Read request sizes (log2)
system.mem_ctrls.writePktSize::0                    0                       # Write request sizes (log2)
system.mem_ctrls.writePktSize::1                    0                       # Write request sizes (log2)
system.mem_ctrls.writePktSize::2                    0                       # Write request sizes (log2)
system.mem_ctrls.writePktSize::3                    0                       # Write request sizes (log2)
system.mem_ctrls.writePktSize::4                    0                       # Write request sizes (log2)
system.mem_ctrls.writePktSize::5                    0                       # Write request sizes (log2)
system.mem_ctrls.writePktSize::6                15158                       # Write request sizes (log2)
system.mem_ctrls.rdQLenPdf::0                   14600                       # What read queue length does an incoming req see
system.mem_ctrls.rdQLenPdf::1                     683                       # What read queue length does an incoming req see
system.mem_ctrls.rdQLenPdf::2                       0                       # What read queue length does an incoming req see
system.mem_ctrls.rdQLenPdf::3                       0                       # What read queue length does an incoming req see
system.mem_ctrls.rdQLenPdf::4                       0                       # What read queue length does an incoming req see
system.mem_ctrls.rdQLenPdf::5                       0                       # What read queue length does an incoming req see
system.mem_ctrls.rdQLenPdf::6                       0                       # What read queue length does an incoming req see
system.mem_ctrls.rdQLenPdf::7                       0                       # What read queue length does an incoming req see
system.mem_ctrls.rdQLenPdf::8                       0                       # What read queue length does an incoming req see
system.mem_ctrls.rdQLenPdf::9                       0                       # What read queue length does an incoming req see
system.mem_ctrls.rdQLenPdf::10                      0                       # What read queue length does an incoming req see
system.mem_ctrls.rdQLenPdf::11                      0                       # What read queue length does an incoming req see
system.mem_ctrls.rdQLenPdf::12                      0                       # What read queue length does an incoming req see
system.mem_ctrls.rdQLenPdf::13                      0                       # What read queue length does an incoming req see
system.mem_ctrls.rdQLenPdf::14                      0                       # What read queue length does an incoming req see
system.mem_ctrls.rdQLenPdf::15                      0                       # What read queue length does an incoming req see
system.mem_ctrls.rdQLenPdf::16                      0                       # What read queue length does an incoming req see
system.mem_ctrls.rdQLenPdf::17                      0                       # What read queue length does an incoming req see
system.mem_ctrls.rdQLenPdf::18                      0                       # What read queue length does an incoming req see
system.mem_ctrls.rdQLenPdf::19                      0                       # What read queue length does an incoming req see
system.mem_ctrls.rdQLenPdf::20                      0                       # What read queue length does an incoming req see
system.mem_ctrls.rdQLenPdf::21                      0                       # What read queue length does an incoming req see
system.mem_ctrls.rdQLenPdf::22                      0                       # What read queue length does an incoming req see
system.mem_ctrls.rdQLenPdf::23                      0                       # What read queue length does an incoming req see
system.mem_ctrls.rdQLenPdf::24                      0                       # What read queue length does an incoming req see
system.mem_ctrls.rdQLenPdf::25                      0                       # What read queue length does an incoming req see
system.mem_ctrls.rdQLenPdf::26                      0                       # What read queue length does an incoming req see
system.mem_ctrls.rdQLenPdf::27                      0                       # What read queue length does an incoming req see
system.mem_ctrls.rdQLenPdf::28                      0                       # What read queue length does an incoming req see
system.mem_ctrls.rdQLenPdf::29                      0                       # What read queue length does an incoming req see
system.mem_ctrls.rdQLenPdf::30                      0                       # What read queue length does an incoming req see
system.mem_ctrls.rdQLenPdf::31                      0                       # What read queue length does an incoming req see
system.mem_ctrls.wrQLenPdf::0                       0                       # What write queue length does an incoming req see
system.mem_ctrls.wrQLenPdf::1                       0                       # What write queue length does an incoming req see
system.mem_ctrls.wrQLenPdf::2                       0                       # What write queue length does an incoming req see
system.mem_ctrls.wrQLenPdf::3                       0                       # What write queue length does an incoming req see
system.mem_ctrls.wrQLenPdf::4                       0                       # What write queue length does an incoming req see
system.mem_ctrls.wrQLenPdf::5                       0                       # What write queue length does an incoming req see
system.mem_ctrls.wrQLenPdf::6                       0                       # What write queue length does an incoming req see
system.mem_ctrls.wrQLenPdf::7                       0                       # What write queue length does an incoming req see
system.mem_ctrls.wrQLenPdf::8                       0                       # What write queue length does an incoming req see
system.mem_ctrls.wrQLenPdf::9                       0                       # What write queue length does an incoming req see
system.mem_ctrls.wrQLenPdf::10                      0                       # What write queue length does an incoming req see
system.mem_ctrls.wrQLenPdf::11                      0                       # What write queue length does an incoming req see
system.mem_ctrls.wrQLenPdf::12                      0                       # What write queue length does an incoming req see
system.mem_ctrls.wrQLenPdf::13                      0                       # What write queue length does an incoming req see
system.mem_ctrls.wrQLenPdf::14                      0                       # What write queue length does an incoming req see
system.mem_ctrls.wrQLenPdf::15                    564                       # What write queue length does an incoming req see
system.mem_ctrls.wrQLenPdf::16                    585                       # What write queue length does an incoming req see
system.mem_ctrls.wrQLenPdf::17                    869                       # What write queue length does an incoming req see
system.mem_ctrls.wrQLenPdf::18                    874                       # What write queue length does an incoming req see
system.mem_ctrls.wrQLenPdf::19                    874                       # What write queue length does an incoming req see
system.mem_ctrls.wrQLenPdf::20                    873                       # What write queue length does an incoming req see
system.mem_ctrls.wrQLenPdf::21                    873                       # What write queue length does an incoming req see
system.mem_ctrls.wrQLenPdf::22                    874                       # What write queue length does an incoming req see
system.mem_ctrls.wrQLenPdf::23                    873                       # What write queue length does an incoming req see
system.mem_ctrls.wrQLenPdf::24                    875                       # What write queue length does an incoming req see
system.mem_ctrls.wrQLenPdf::25                    877                       # What write queue length does an incoming req see
system.mem_ctrls.wrQLenPdf::26                    876                       # What write queue length does an incoming req see
system.mem_ctrls.wrQLenPdf::27                    874                       # What write queue length does an incoming req see
system.mem_ctrls.wrQLenPdf::28                    873                       # What write queue length does an incoming req see
system.mem_ctrls.wrQLenPdf::29                    873                       # What write queue length does an incoming req see
system.mem_ctrls.wrQLenPdf::30                    903                       # What write queue length does an incoming req see
system.mem_ctrls.wrQLenPdf::31                    874                       # What write queue length does an incoming req see
system.mem_ctrls.wrQLenPdf::32                    874                       # What write queue length does an incoming req see
system.mem_ctrls.wrQLenPdf::33                      0                       # What write queue length does an incoming req see
system.mem_ctrls.wrQLenPdf::34                      0                       # What write queue length does an incoming req see
system.mem_ctrls.wrQLenPdf::35                      0                       # What write queue length does an incoming req see
system.mem_ctrls.wrQLenPdf::36                      0                       # What write queue length does an incoming req see
system.mem_ctrls.wrQLenPdf::37                      0                       # What write queue length does an incoming req see
system.mem_ctrls.wrQLenPdf::38                      0                       # What write queue length does an incoming req see
system.mem_ctrls.wrQLenPdf::39                      0                       # What write queue length does an incoming req see
system.mem_ctrls.wrQLenPdf::40                      0                       # What write queue length does an incoming req see
system.mem_ctrls.wrQLenPdf::41                      0                       # What write queue length does an incoming req see
system.mem_ctrls.wrQLenPdf::42                      0                       # What write queue length does an incoming req see
system.mem_ctrls.wrQLenPdf::43                      0                       # What write queue length does an incoming req see
system.mem_ctrls.wrQLenPdf::44                      0                       # What write queue length does an incoming req see
system.mem_ctrls.wrQLenPdf::45                      0                       # What write queue length does an incoming req see
system.mem_ctrls.wrQLenPdf::46                      0                       # What write queue length does an incoming req see
system.mem_ctrls.wrQLenPdf::47                      0                       # What write queue length does an incoming req see
system.mem_ctrls.wrQLenPdf::48                      0                       # What write queue length does an incoming req see
system.mem_ctrls.wrQLenPdf::49                      0                       # What write queue length does an incoming req see
system.mem_ctrls.wrQLenPdf::50                      0                       # What write queue length does an incoming req see
system.mem_ctrls.wrQLenPdf::51                      0                       # What write queue length does an incoming req see
system.mem_ctrls.wrQLenPdf::52                      0                       # What write queue length does an incoming req see
system.mem_ctrls.wrQLenPdf::53                      0                       # What write queue length does an incoming req see
system.mem_ctrls.wrQLenPdf::54                      0                       # What write queue length does an incoming req see
system.mem_ctrls.wrQLenPdf::55                      0                       # What write queue length does an incoming req see
system.mem_ctrls.wrQLenPdf::56                      0                       # What write queue length does an incoming req see
system.mem_ctrls.wrQLenPdf::57                      0                       # What write queue length does an incoming req see
system.mem_ctrls.wrQLenPdf::58                      0                       # What write queue length does an incoming req see
system.mem_ctrls.wrQLenPdf::59                      0                       # What write queue length does an incoming req see
system.mem_ctrls.wrQLenPdf::60                      0                       # What write queue length does an incoming req see
system.mem_ctrls.wrQLenPdf::61                      0                       # What write queue length does an incoming req see
system.mem_ctrls.wrQLenPdf::62                      0                       # What write queue length does an incoming req see
system.mem_ctrls.wrQLenPdf::63                      0                       # What write queue length does an incoming req see
system.mem_ctrls.bytesPerActivate::samples        21743                       # Bytes accessed per row activation
system.mem_ctrls.bytesPerActivate::mean     89.637676                       # Bytes accessed per row activation
system.mem_ctrls.bytesPerActivate::gmean    81.090100                       # Bytes accessed per row activation
system.mem_ctrls.bytesPerActivate::stdev    49.952142                       # Bytes accessed per row activation
system.mem_ctrls.bytesPerActivate::64-127        15661     72.03%     72.03% # Bytes accessed per row activation
system.mem_ctrls.bytesPerActivate::128-191         4388     20.18%     92.21% # Bytes accessed per row activation
system.mem_ctrls.bytesPerActivate::192-255         1070      4.92%     97.13% # Bytes accessed per row activation
system.mem_ctrls.bytesPerActivate::256-319          417      1.92%     99.05% # Bytes accessed per row activation
system.mem_ctrls.bytesPerActivate::320-383          133      0.61%     99.66% # Bytes accessed per row activation
system.mem_ctrls.bytesPerActivate::384-447           52      0.24%     99.90% # Bytes accessed per row activation
system.mem_ctrls.bytesPerActivate::448-511           16      0.07%     99.97% # Bytes accessed per row activation
system.mem_ctrls.bytesPerActivate::512-575            5      0.02%    100.00% # Bytes accessed per row activation
system.mem_ctrls.bytesPerActivate::576-639            1      0.00%    100.00% # Bytes accessed per row activation
system.mem_ctrls.bytesPerActivate::total        21743                       # Bytes accessed per row activation
system.mem_ctrls.rdPerTurnAround::samples          874                       # Reads before turning the bus around for writes
system.mem_ctrls.rdPerTurnAround::mean      17.496568                       # Reads before turning the bus around for writes
system.mem_ctrls.rdPerTurnAround::gmean     17.464429                       # Reads before turning the bus around for writes
system.mem_ctrls.rdPerTurnAround::stdev      1.052184                       # Reads before turning the bus around for writes
system.mem_ctrls.rdPerTurnAround::15                4      0.46%      0.46% # Reads before turning the bus around for writes
system.mem_ctrls.rdPerTurnAround::16              242     27.69%     28.15% # Reads before turning the bus around for writes
system.mem_ctrls.rdPerTurnAround::17               54      6.18%     34.32% # Reads before turning the bus around for writes
system.mem_ctrls.rdPerTurnAround::18              474     54.23%     88.56% # Reads before turning the bus around for writes
system.mem_ctrls.rdPerTurnAround::19               90     10.30%     98.86% # Reads before turning the bus around for writes
system.mem_ctrls.rdPerTurnAround::20               10      1.14%    100.00% # Reads before turning the bus around for writes
system.mem_ctrls.rdPerTurnAround::total           874                       # Reads before turning the bus around for writes
system.mem_ctrls.wrPerTurnAround::samples          874                       # Writes before turning the bus around for reads
system.mem_ctrls.wrPerTurnAround::mean      17.355835                       # Writes before turning the bus around for reads
system.mem_ctrls.wrPerTurnAround::gmean     17.327421                       # Writes before turning the bus around for reads
system.mem_ctrls.wrPerTurnAround::stdev      0.983446                       # Writes before turning the bus around for reads
system.mem_ctrls.wrPerTurnAround::16              288     32.95%     32.95% # Writes before turning the bus around for reads
system.mem_ctrls.wrPerTurnAround::17               20      2.29%     35.24% # Writes before turning the bus around for reads
system.mem_ctrls.wrPerTurnAround::18              534     61.10%     96.34% # Writes before turning the bus around for reads
system.mem_ctrls.wrPerTurnAround::19               31      3.55%     99.89% # Writes before turning the bus around for reads
system.mem_ctrls.wrPerTurnAround::20                1      0.11%    100.00% # Writes before turning the bus around for reads
system.mem_ctrls.wrPerTurnAround::total           874                       # Writes before turning the bus around for reads
system.mem_ctrls.totQLat                    443973000                       # Total ticks spent queuing
system.mem_ctrls.totMemAccLat               730529250                       # Total ticks spent from burst creation until serviced by the DRAM
system.mem_ctrls.totBusLat                   76415000                       # Total ticks spent in databus transfers
system.mem_ctrls.avgQLat                     29050.12                       # Average queueing delay per DRAM burst
system.mem_ctrls.avgBusLat                    5000.00                       # Average bus latency per DRAM burst
system.mem_ctrls.avgMemAccLat                47800.12                       # Average memory access latency per DRAM burst
system.mem_ctrls.avgRdBW                        64.07                       # Average DRAM read bandwidth in MiByte/s
system.mem_ctrls.avgWrBW                        63.59                       # Average achieved write bandwidth in MiByte/s
system.mem_ctrls.avgRdBWSys                     64.08                       # Average system read bandwidth in MiByte/s
system.mem_ctrls.avgWrBWSys                     63.54                       # Average system write bandwidth in MiByte/s
system.mem_ctrls.peakBW                      12800.00                       # Theoretical peak bandwidth in MiByte/s
system.mem_ctrls.busUtil                         1.00                       # Data bus utilization in percentage
system.mem_ctrls.busUtilRead                     0.50                       # Data bus utilization in percentage for reads
system.mem_ctrls.busUtilWrite                    0.50                       # Data bus utilization in percentage for writes
system.mem_ctrls.avgRdQLen                       1.09                       # Average read queue length when enqueuing
system.mem_ctrls.avgWrQLen                      24.95                       # Average write queue length when enqueuing
system.mem_ctrls.readRowHits                     5385                       # Number of row buffer hits during reads
system.mem_ctrls.writeRowHits                    3323                       # Number of row buffer hits during writes
system.mem_ctrls.readRowHitRate                 35.24                       # Row buffer hit rate for reads
system.mem_ctrls.writeRowHitRate                21.92                       # Row buffer hit rate for writes
system.mem_ctrls.avgGap                     501409.00                       # Average gap between requests
system.mem_ctrls.pageHitRate                    28.61                       # Row buffer hit rate, read and write combined
system.mem_ctrls_0.actEnergy                 76455120                       # Energy for activate commands per rank (pJ)
system.mem_ctrls_0.preEnergy                 40633065                       # Energy for precharge commands per rank (pJ)
system.mem_ctrls_0.readEnergy                53371500                       # Energy for read commands per rank (pJ)
system.mem_ctrls_0.writeEnergy               38763720                       # Energy for write commands per rank (pJ)
system.mem_ctrls_0.refreshEnergy         1228050720.000000                       # Energy for refresh commands per rank (pJ)
system.mem_ctrls_0.actBackEnergy           1003776270                       # Energy for active background per rank (pJ)
system.mem_ctrls_0.preBackEnergy             34653120                       # Energy for precharge background per rank (pJ)
system.mem_ctrls_0.actPowerDownEnergy      4243994850                       # Energy for active power-down per rank (pJ)
system.mem_ctrls_0.prePowerDownEnergy      1310635200                       # Energy for precharge power-down per rank (pJ)
system.mem_ctrls_0.selfRefreshEnergy        102790500                       # Energy for self refresh per rank (pJ)
system.mem_ctrls_0.totalEnergy             8133420645                       # Total energy per rank (pJ)
system.mem_ctrls_0.averagePower            532.733171                       # Core power per rank (mW)
system.mem_ctrls_0.totalIdleTime          12970316875                       # Total Idle time Per DRAM Rank
system.mem_ctrls_0.memoryStateTime::IDLE     30731000                       # Time in different power states
system.mem_ctrls_0.memoryStateTime::REF     519990000                       # Time in different power states
system.mem_ctrls_0.memoryStateTime::SREF    255056750                       # Time in different power states
system.mem_ctrls_0.memoryStateTime::PRE_PDN   3412921000                       # Time in different power states
system.mem_ctrls_0.memoryStateTime::ACT    1741917000                       # Time in different power states
system.mem_ctrls_0.memoryStateTime::ACT_PDN   9306728375                       # Time in different power states
system.mem_ctrls_1.actEnergy                 78797040                       # Energy for activate commands per rank (pJ)
system.mem_ctrls_1.preEnergy                 41881620                       # Energy for precharge commands per rank (pJ)
system.mem_ctrls_1.readEnergy                55749120                       # Energy for read commands per rank (pJ)
system.mem_ctrls_1.writeEnergy               40418460                       # Energy for write commands per rank (pJ)
system.mem_ctrls_1.refreshEnergy         1218216480.000000                       # Energy for refresh commands per rank (pJ)
system.mem_ctrls_1.actBackEnergy            960473370                       # Energy for active background per rank (pJ)
system.mem_ctrls_1.preBackEnergy             32069280                       # Energy for precharge background per rank (pJ)
system.mem_ctrls_1.actPowerDownEnergy      4414388940                       # Energy for active power-down per rank (pJ)
system.mem_ctrls_1.prePowerDownEnergy      1213637760                       # Energy for precharge power-down per rank (pJ)
system.mem_ctrls_1.selfRefreshEnergy         87646140                       # Energy for self refresh per rank (pJ)
system.mem_ctrls_1.totalEnergy             8143571790                       # Total energy per rank (pJ)
system.mem_ctrls_1.averagePower            533.398063                       # Core power per rank (mW)
system.mem_ctrls_1.totalIdleTime          13070463125                       # Total Idle time Per DRAM Rank
system.mem_ctrls_1.memoryStateTime::IDLE     25965750                       # Time in different power states
system.mem_ctrls_1.memoryStateTime::REF     515674000                       # Time in different power states
system.mem_ctrls_1.memoryStateTime::SREF    235681250                       # Time in different power states
system.mem_ctrls_1.memoryStateTime::PRE_PDN   3160399125                       # Time in different power states
system.mem_ctrls_1.memoryStateTime::ACT    1648849750                       # Time in different power states
system.mem_ctrls_1.memoryStateTime::ACT_PDN   9680774250                       # Time in different power states
system.pwrStateResidencyTicks::UNDEFINED  15267344125                       # Cumulative time (in ticks) in various power states
system.cpu0.branchPred.lookups               13317018                       # Number of BP lookups
system.cpu0.branchPred.condPredicted         13317018                       # Number of conditional branches predicted
system.cpu0.branchPred.condIncorrect          1381608                       # Number of conditional branches incorrect
system.cpu0.branchPred.BTBLookups            11165143                       # Number of BTB lookups
system.cpu0.branchPred.BTBHits                      0                       # Number of BTB hits
system.cpu0.branchPred.BTBCorrect                   0                       # Number of correct BTB predictions (this stat may not work properly.
system.cpu0.branchPred.BTBHitPct             0.000000                       # BTB Hit Percentage
system.cpu0.branchPred.usedRAS                1063362                       # Number of times the RAS was used to get a target.
system.cpu0.branchPred.RASInCorrect            191673                       # Number of incorrect RAS predictions.
system.cpu0.branchPred.indirectLookups       11165143                       # Number of indirect predictor lookups.
system.cpu0.branchPred.indirectHits           2701950                       # Number of indirect target hits.
system.cpu0.branchPred.indirectMisses         8463193                       # Number of indirect misses.
system.cpu0.branchPredindirectMispredicted       903646                       # Number of mispredicted indirect branches.
system.cpu_voltage_domain.voltage                   1                       # Voltage in Volts
system.cpu_clk_domain.clock                       500                       # Clock period in ticks
system.cpu0.dtb.walker.pwrStateResidencyTicks::UNDEFINED  15267344125                       # Cumulative time (in ticks) in various power states
system.cpu0.dtb.rdAccesses                    7006939                       # TLB accesses on read requests
system.cpu0.dtb.wrAccesses                    2342846                       # TLB accesses on write requests
system.cpu0.dtb.rdMisses                        85256                       # TLB misses on read requests
system.cpu0.dtb.wrMisses                        16135                       # TLB misses on write requests
system.cpu0.apic_clk_domain.clock                8000                       # Clock period in ticks
system.cpu0.interrupts.pwrStateResidencyTicks::UNDEFINED  15267344125                       # Cumulative time (in ticks) in various power states
system.cpu0.itb.walker.pwrStateResidencyTicks::UNDEFINED  15267344125                       # Cumulative time (in ticks) in various power states
system.cpu0.itb.rdAccesses                          0                       # TLB accesses on read requests
system.cpu0.itb.wrAccesses                    6574830                       # TLB accesses on write requests
system.cpu0.itb.rdMisses                            0                       # TLB misses on read requests
system.cpu0.itb.wrMisses                         2426                       # TLB misses on write requests
system.cpu0.workload.numSyscalls                   20                       # Number of system calls
system.cpu0.pwrStateResidencyTicks::ON    15267344125                       # Cumulative time (in ticks) in various power states
system.cpu0.numCycles                        30534688                       # number of cpu cycles simulated
system.cpu0.numWorkItemsStarted                     0                       # number of work items this cpu started
system.cpu0.numWorkItemsCompleted                   0                       # number of work items this cpu completed
system.cpu0.fetch.icacheStallCycles           7409585                       # Number of cycles fetch is stalled on an Icache miss
system.cpu0.fetch.Insts                      56855933                       # Number of instructions fetch has processed
system.cpu0.fetch.Branches                   13317018                       # Number of branches that fetch encountered
system.cpu0.fetch.predictedBranches           3765312                       # Number of branches that fetch has predicted taken
system.cpu0.fetch.Cycles                     21727235                       # Number of cycles fetch has run and was not squashing or blocked
system.cpu0.fetch.SquashCycles                2765306                       # Number of cycles fetch has spent squashing
system.cpu0.fetch.TlbCycles                         5                       # Number of cycles fetch has spent waiting for tlb
system.cpu0.fetch.MiscStallCycles                 853                       # Number of cycles fetch has spent waiting on interrupts, or bad addresses, or out of MSHRs
system.cpu0.fetch.PendingTrapStallCycles        13974                       # Number of stall cycles due to pending traps
system.cpu0.fetch.CacheLines                  6572404                       # Number of cache lines fetched
system.cpu0.fetch.IcacheSquashes               320070                       # Number of outstanding Icache misses that were squashed
system.cpu0.fetch.rateDist::samples          30534305                       # Number of instructions fetched each cycle (Total)
system.cpu0.fetch.rateDist::mean             4.056138                       # Number of instructions fetched each cycle (Total)
system.cpu0.fetch.rateDist::stdev            3.668294                       # Number of instructions fetched each cycle (Total)
system.cpu0.fetch.rateDist::underflows              0      0.00%      0.00% # Number of instructions fetched each cycle (Total)
system.cpu0.fetch.rateDist::0                12011527     39.34%     39.34% # Number of instructions fetched each cycle (Total)
system.cpu0.fetch.rateDist::1                  532765      1.74%     41.08% # Number of instructions fetched each cycle (Total)
system.cpu0.fetch.rateDist::2                  901338      2.95%     44.03% # Number of instructions fetched each cycle (Total)
system.cpu0.fetch.rateDist::3                 1357258      4.45%     48.48% # Number of instructions fetched each cycle (Total)
system.cpu0.fetch.rateDist::4                  595695      1.95%     50.43% # Number of instructions fetched each cycle (Total)
system.cpu0.fetch.rateDist::5                 1166361      3.82%     54.25% # Number of instructions fetched each cycle (Total)
system.cpu0.fetch.rateDist::6                 1018366      3.34%     57.59% # Number of instructions fetched each cycle (Total)
system.cpu0.fetch.rateDist::7                  488603      1.60%     59.19% # Number of instructions fetched each cycle (Total)
system.cpu0.fetch.rateDist::8                12462392     40.81%    100.00% # Number of instructions fetched each cycle (Total)
system.cpu0.fetch.rateDist::overflows               0      0.00%    100.00% # Number of instructions fetched each cycle (Total)
system.cpu0.fetch.rateDist::min_value               0                       # Number of instructions fetched each cycle (Total)
system.cpu0.fetch.rateDist::max_value               8                       # Number of instructions fetched each cycle (Total)
system.cpu0.fetch.rateDist::total            30534305                       # Number of instructions fetched each cycle (Total)
system.cpu0.fetch.branchRate                 0.436128                       # Number of branch fetches per cycle
system.cpu0.fetch.rate                       1.862011                       # Number of inst fetches per cycle
system.cpu0.decode.IdleCycles                 5597174                       # Number of cycles decode is idle
system.cpu0.decode.BlockedCycles              8242202                       # Number of cycles decode is blocked
system.cpu0.decode.RunCycles                 13872546                       # Number of cycles decode is running
system.cpu0.decode.UnblockCycles              1439730                       # Number of cycles decode is unblocking
system.cpu0.decode.SquashCycles               1382653                       # Number of cycles decode is squashing
system.cpu0.decode.DecodedInsts             111005384                       # Number of instructions handled by decode
system.cpu0.rename.SquashCycles               1382653                       # Number of cycles rename is squashing
system.cpu0.rename.IdleCycles                 6671159                       # Number of cycles rename is idle
system.cpu0.rename.BlockCycles                6870520                       # Number of cycles rename is blocking
system.cpu0.rename.serializeStallCycles        235909                       # count of cycles rename stalled for serializing inst
system.cpu0.rename.RunCycles                 14021996                       # Number of cycles rename is running
system.cpu0.rename.UnblockCycles              1352068                       # Number of cycles rename is unblocking
system.cpu0.rename.RenamedInsts             103807148                       # Number of instructions processed by rename
system.cpu0.rename.ROBFullEvents                29238                       # Number of times rename has blocked due to ROB full
system.cpu0.rename.IQFullEvents                717036                       # Number of times rename has blocked due to IQ full
system.cpu0.rename.LQFullEvents                   161                       # Number of times rename has blocked due to LQ full
system.cpu0.rename.SQFullEvents                401999                       # Number of times rename has blocked due to SQ full
system.cpu0.rename.RenamedOperands          116782454                       # Number of destination operands rename has renamed
system.cpu0.rename.RenameLookups            257389863                       # Number of register rename lookups that rename has made
system.cpu0.rename.int_rename_lookups       140976816                       # Number of integer rename lookups
system.cpu0.rename.fp_rename_lookups         19830125                       # Number of floating rename lookups
system.cpu0.rename.CommittedMaps             48651691                       # Number of HB maps that are committed
system.cpu0.rename.UndoneMaps                68130847                       # Number of HB maps that are undone due to squashing
system.cpu0.rename.serializingInsts             31425                       # count of serializing insts renamed
system.cpu0.rename.tempSerializingInsts         33765                       # count of temporary serializing insts renamed
system.cpu0.rename.skidInsts                  3270136                       # count of insts added to the skid buffer
system.cpu0.memDep0.insertedLoads             9550232                       # Number of loads inserted to the mem dependence unit.
system.cpu0.memDep0.insertedStores            3252390                       # Number of stores inserted to the mem dependence unit.
system.cpu0.memDep0.conflictingLoads           155180                       # Number of conflicting loads.
system.cpu0.memDep0.conflictingStores          159216                       # Number of conflicting stores.
system.cpu0.iq.iqInstsAdded                  90068034                       # Number of instructions added to the IQ (excludes non-spec)
system.cpu0.iq.iqNonSpecInstsAdded             209629                       # Number of non-speculative instructions added to the IQ
system.cpu0.iq.iqInstsIssued                 71577878                       # Number of instructions issued
system.cpu0.iq.iqSquashedInstsIssued           693120                       # Number of squashed instructions issued
system.cpu0.iq.iqSquashedInstsExamined       48335221                       # Number of squashed instructions iterated over during squash; mainly for profiling
system.cpu0.iq.iqSquashedOperandsExamined     69875033                       # Number of squashed operands that are examined and possibly removed from graph
system.cpu0.iq.iqSquashedNonSpecRemoved        209519                       # Number of squashed non-spec instructions that were removed
system.cpu0.iq.issued_per_cycle::samples     30534305                       # Number of insts issued each cycle
system.cpu0.iq.issued_per_cycle::mean        2.344179                       # Number of insts issued each cycle
system.cpu0.iq.issued_per_cycle::stdev       2.598047                       # Number of insts issued each cycle
system.cpu0.iq.issued_per_cycle::underflows            0      0.00%      0.00% # Number of insts issued each cycle
system.cpu0.iq.issued_per_cycle::0           13212898     43.27%     43.27% # Number of insts issued each cycle
system.cpu0.iq.issued_per_cycle::1            2230647      7.31%     50.58% # Number of insts issued each cycle
system.cpu0.iq.issued_per_cycle::2            2762984      9.05%     59.63% # Number of insts issued each cycle
system.cpu0.iq.issued_per_cycle::3            2321455      7.60%     67.23% # Number of insts issued each cycle
system.cpu0.iq.issued_per_cycle::4            2363558      7.74%     74.97% # Number of insts issued each cycle
system.cpu0.iq.issued_per_cycle::5            2250105      7.37%     82.34% # Number of insts issued each cycle
system.cpu0.iq.issued_per_cycle::6            2677363      8.77%     91.11% # Number of insts issued each cycle
system.cpu0.iq.issued_per_cycle::7            1634397      5.35%     96.46% # Number of insts issued each cycle
system.cpu0.iq.issued_per_cycle::8            1080898      3.54%    100.00% # Number of insts issued each cycle
system.cpu0.iq.issued_per_cycle::overflows            0      0.00%    100.00% # Number of insts issued each cycle
system.cpu0.iq.issued_per_cycle::min_value            0                       # Number of insts issued each cycle
system.cpu0.iq.issued_per_cycle::max_value            8                       # Number of insts issued each cycle
system.cpu0.iq.issued_per_cycle::total       30534305                       # Number of insts issued each cycle
system.cpu0.iq.fu_full::No_OpClass                  0      0.00%      0.00% # attempts to use FU when none available
system.cpu0.iq.fu_full::IntAlu                1471119     92.95%     92.95% # attempts to use FU when none available
system.cpu0.iq.fu_full::IntMult                     0      0.00%     92.95% # attempts to use FU when none available
system.cpu0.iq.fu_full::IntDiv                      0      0.00%     92.95% # attempts to use FU when none available
system.cpu0.iq.fu_full::FloatAdd                81771      5.17%     98.12% # attempts to use FU when none available
system.cpu0.iq.fu_full::FloatCmp                    0      0.00%     98.12% # attempts to use FU when none available
system.cpu0.iq.fu_full::FloatCvt                    0      0.00%     98.12% # attempts to use FU when none available
system.cpu0.iq.fu_full::FloatMult                   0      0.00%     98.12% # attempts to use FU when none available
system.cpu0.iq.fu_full::FloatMultAcc                0      0.00%     98.12% # attempts to use FU when none available
system.cpu0.iq.fu_full::FloatDiv                    0      0.00%     98.12% # attempts to use FU when none available
system.cpu0.iq.fu_full::FloatMisc                   0      0.00%     98.12% # attempts to use FU when none available
system.cpu0.iq.fu_full::FloatSqrt                   0      0.00%     98.12% # attempts to use FU when none available
system.cpu0.iq.fu_full::SimdAdd                     0      0.00%     98.12% # attempts to use FU when none available
system.cpu0.iq.fu_full::SimdAddAcc                  0      0.00%     98.12% # attempts to use FU when none available
system.cpu0.iq.fu_full::SimdAlu                     0      0.00%     98.12% # attempts to use FU when none available
system.cpu0.iq.fu_full::SimdCmp                     0      0.00%     98.12% # attempts to use FU when none available
system.cpu0.iq.fu_full::SimdCvt                     0      0.00%     98.12% # attempts to use FU when none available
system.cpu0.iq.fu_full::SimdMisc                    0      0.00%     98.12% # attempts to use FU when none available
system.cpu0.iq.fu_full::SimdMult                    0      0.00%     98.12% # attempts to use FU when none available
system.cpu0.iq.fu_full::SimdMultAcc                 0      0.00%     98.12% # attempts to use FU when none available
system.cpu0.iq.fu_full::SimdShift                   0      0.00%     98.12% # attempts to use FU when none available
system.cpu0.iq.fu_full::SimdShiftAcc                0      0.00%     98.12% # attempts to use FU when none available
system.cpu0.iq.fu_full::SimdSqrt                    0      0.00%     98.12% # attempts to use FU when none available
system.cpu0.iq.fu_full::SimdFloatAdd                0      0.00%     98.12% # attempts to use FU when none available
system.cpu0.iq.fu_full::SimdFloatAlu                0      0.00%     98.12% # attempts to use FU when none available
system.cpu0.iq.fu_full::SimdFloatCmp                0      0.00%     98.12% # attempts to use FU when none available
system.cpu0.iq.fu_full::SimdFloatCvt                0      0.00%     98.12% # attempts to use FU when none available
system.cpu0.iq.fu_full::SimdFloatDiv                0      0.00%     98.12% # attempts to use FU when none available
system.cpu0.iq.fu_full::SimdFloatMisc               0      0.00%     98.12% # attempts to use FU when none available
system.cpu0.iq.fu_full::SimdFloatMult               0      0.00%     98.12% # attempts to use FU when none available
system.cpu0.iq.fu_full::SimdFloatMultAcc            0      0.00%     98.12% # attempts to use FU when none available
system.cpu0.iq.fu_full::SimdFloatSqrt               0      0.00%     98.12% # attempts to use FU when none available
system.cpu0.iq.fu_full::MemRead                  4541      0.29%     98.41% # attempts to use FU when none available
system.cpu0.iq.fu_full::MemWrite                 1563      0.10%     98.51% # attempts to use FU when none available
system.cpu0.iq.fu_full::FloatMemRead            23234      1.47%     99.97% # attempts to use FU when none available
system.cpu0.iq.fu_full::FloatMemWrite             422      0.03%    100.00% # attempts to use FU when none available
system.cpu0.iq.fu_full::IprAccess                   0      0.00%    100.00% # attempts to use FU when none available
system.cpu0.iq.fu_full::InstPrefetch                0      0.00%    100.00% # attempts to use FU when none available
system.cpu0.iq.FU_type_0::No_OpClass          1874547      2.62%      2.62% # Type of FU issued
system.cpu0.iq.FU_type_0::IntAlu             54359274     75.94%     78.56% # Type of FU issued
system.cpu0.iq.FU_type_0::IntMult                2451      0.00%     78.57% # Type of FU issued
system.cpu0.iq.FU_type_0::IntDiv                74466      0.10%     78.67% # Type of FU issued
system.cpu0.iq.FU_type_0::FloatAdd            5076048      7.09%     85.76% # Type of FU issued
system.cpu0.iq.FU_type_0::FloatCmp                  0      0.00%     85.76% # Type of FU issued
system.cpu0.iq.FU_type_0::FloatCvt                  0      0.00%     85.76% # Type of FU issued
system.cpu0.iq.FU_type_0::FloatMult                 0      0.00%     85.76% # Type of FU issued
system.cpu0.iq.FU_type_0::FloatMultAcc              0      0.00%     85.76% # Type of FU issued
system.cpu0.iq.FU_type_0::FloatDiv                  0      0.00%     85.76% # Type of FU issued
system.cpu0.iq.FU_type_0::FloatMisc                 0      0.00%     85.76% # Type of FU issued
system.cpu0.iq.FU_type_0::FloatSqrt                 0      0.00%     85.76% # Type of FU issued
system.cpu0.iq.FU_type_0::SimdAdd                   0      0.00%     85.76% # Type of FU issued
system.cpu0.iq.FU_type_0::SimdAddAcc                0      0.00%     85.76% # Type of FU issued
system.cpu0.iq.FU_type_0::SimdAlu                   0      0.00%     85.76% # Type of FU issued
system.cpu0.iq.FU_type_0::SimdCmp                   0      0.00%     85.76% # Type of FU issued
system.cpu0.iq.FU_type_0::SimdCvt                   0      0.00%     85.76% # Type of FU issued
system.cpu0.iq.FU_type_0::SimdMisc                  0      0.00%     85.76% # Type of FU issued
system.cpu0.iq.FU_type_0::SimdMult                  0      0.00%     85.76% # Type of FU issued
system.cpu0.iq.FU_type_0::SimdMultAcc               0      0.00%     85.76% # Type of FU issued
system.cpu0.iq.FU_type_0::SimdShift                 0      0.00%     85.76% # Type of FU issued
system.cpu0.iq.FU_type_0::SimdShiftAcc              0      0.00%     85.76% # Type of FU issued
system.cpu0.iq.FU_type_0::SimdSqrt                  0      0.00%     85.76% # Type of FU issued
system.cpu0.iq.FU_type_0::SimdFloatAdd              0      0.00%     85.76% # Type of FU issued
system.cpu0.iq.FU_type_0::SimdFloatAlu              0      0.00%     85.76% # Type of FU issued
system.cpu0.iq.FU_type_0::SimdFloatCmp              0      0.00%     85.76% # Type of FU issued
system.cpu0.iq.FU_type_0::SimdFloatCvt              0      0.00%     85.76% # Type of FU issued
system.cpu0.iq.FU_type_0::SimdFloatDiv              0      0.00%     85.76% # Type of FU issued
system.cpu0.iq.FU_type_0::SimdFloatMisc             0      0.00%     85.76% # Type of FU issued
system.cpu0.iq.FU_type_0::SimdFloatMult             0      0.00%     85.76% # Type of FU issued
system.cpu0.iq.FU_type_0::SimdFloatMultAcc            0      0.00%     85.76% # Type of FU issued
system.cpu0.iq.FU_type_0::SimdFloatSqrt             0      0.00%     85.76% # Type of FU issued
system.cpu0.iq.FU_type_0::MemRead             5165427      7.22%     92.98% # Type of FU issued
system.cpu0.iq.FU_type_0::MemWrite            2546156      3.56%     96.54% # Type of FU issued
system.cpu0.iq.FU_type_0::FloatMemRead        2478140      3.46%    100.00% # Type of FU issued
system.cpu0.iq.FU_type_0::FloatMemWrite          1369      0.00%    100.00% # Type of FU issued
system.cpu0.iq.FU_type_0::IprAccess                 0      0.00%    100.00% # Type of FU issued
system.cpu0.iq.FU_type_0::InstPrefetch              0      0.00%    100.00% # Type of FU issued
system.cpu0.iq.FU_type_0::total              71577878                       # Type of FU issued
system.cpu0.iq.rate                          2.344150                       # Inst issue rate
system.cpu0.iq.fu_busy_cnt                    1582650                       # FU busy when requested
system.cpu0.iq.fu_busy_rate                  0.022111                       # FU busy rate (busy events/executed inst)
system.cpu0.iq.int_inst_queue_reads         160440560                       # Number of integer instruction queue reads
system.cpu0.iq.int_inst_queue_writes        120138447                       # Number of integer instruction queue writes
system.cpu0.iq.int_inst_queue_wakeup_accesses     60425781                       # Number of integer instruction queue wakeup accesses
system.cpu0.iq.fp_inst_queue_reads           15525274                       # Number of floating instruction queue reads
system.cpu0.iq.fp_inst_queue_writes          18474686                       # Number of floating instruction queue writes
system.cpu0.iq.fp_inst_queue_wakeup_accesses      6892041                       # Number of floating instruction queue wakeup accesses
system.cpu0.iq.vec_inst_queue_reads                 0                       # Number of vector instruction queue reads
system.cpu0.iq.vec_inst_queue_writes                0                       # Number of vector instruction queue writes
system.cpu0.iq.vec_inst_queue_wakeup_accesses            0                       # Number of vector instruction queue wakeup accesses
system.cpu0.iq.int_alu_accesses              63517738                       # Number of integer alu accesses
system.cpu0.iq.fp_alu_accesses                7768243                       # Number of floating point alu accesses
system.cpu0.iq.vec_alu_accesses                     0                       # Number of vector alu accesses
system.cpu0.iew.lsq.thread0.forwLoads          217564                       # Number of loads that had data forwarded from stores
system.cpu0.iew.lsq.thread0.invAddrLoads            0                       # Number of loads ignored due to an invalid address
system.cpu0.iew.lsq.thread0.squashedLoads      5808587                       # Number of loads squashed
system.cpu0.iew.lsq.thread0.ignoredResponses         3755                       # Number of memory responses ignored because the instruction is squashed
system.cpu0.iew.lsq.thread0.memOrderViolation          275                       # Number of memory ordering violations
system.cpu0.iew.lsq.thread0.squashedStores      1584341                       # Number of stores squashed
system.cpu0.iew.lsq.thread0.invAddrSwpfs            0                       # Number of software prefetches ignored due to an invalid address
system.cpu0.iew.lsq.thread0.blockedLoads            0                       # Number of blocked loads due to partial load-store forwarding
system.cpu0.iew.lsq.thread0.rescheduledLoads         3174                       # Number of loads that were rescheduled
system.cpu0.iew.lsq.thread0.cacheBlocked            6                       # Number of times an access to memory failed due to the cache being blocked
system.cpu0.iew.iewIdleCycles                       0                       # Number of cycles IEW is idle
system.cpu0.iew.iewSquashCycles               1382653                       # Number of cycles IEW is squashing
system.cpu0.iew.iewBlockCycles                6229455                       # Number of cycles IEW is blocking
system.cpu0.iew.iewUnblockCycles                11620                       # Number of cycles IEW is unblocking
system.cpu0.iew.iewDispatchedInsts           90277663                       # Number of instructions dispatched to IQ
system.cpu0.iew.iewDispSquashedInsts            49658                       # Number of squashed instructions skipped by dispatch
system.cpu0.iew.iewDispLoadInsts              9550232                       # Number of dispatched load instructions
system.cpu0.iew.iewDispStoreInsts             3252390                       # Number of dispatched store instructions
system.cpu0.iew.iewDispNonSpecInsts             86541                       # Number of dispatched non-speculative instructions
system.cpu0.iew.iewIQFullEvents                  4683                       # Number of times the IQ has become full, causing a stall
system.cpu0.iew.iewLSQFullEvents                 5310                       # Number of times the LSQ has become full, causing a stall
system.cpu0.iew.memOrderViolationEvents           275                       # Number of memory order violations
system.cpu0.iew.predictedTakenIncorrect        419552                       # Number of branches that were predicted taken incorrectly
system.cpu0.iew.predictedNotTakenIncorrect      1310875                       # Number of branches that were predicted not taken incorrectly
system.cpu0.iew.branchMispredicts             1730427                       # Number of branch mispredicts detected at execute
system.cpu0.iew.iewExecutedInsts             68501401                       # Number of executed instructions
system.cpu0.iew.iewExecLoadInsts              6970602                       # Number of load instructions executed
system.cpu0.iew.iewExecSquashedInsts          3076480                       # Number of squashed instructions skipped in execute
system.cpu0.iew.exec_swp                            0                       # number of swp insts executed
system.cpu0.iew.exec_nop                            0                       # number of nop insts executed
system.cpu0.iew.exec_refs                     9312632                       # number of memory reference insts executed
system.cpu0.iew.exec_branches                 6293917                       # Number of branches executed
system.cpu0.iew.exec_stores                   2342030                       # Number of stores executed
system.cpu0.iew.exec_rate                    2.243396                       # Inst execution rate
system.cpu0.iew.wb_sent                      67877208                       # cumulative count of insts sent to commit
system.cpu0.iew.wb_count                     67317822                       # cumulative count of insts written-back
system.cpu0.iew.wb_producers                 49867118                       # num instructions producing a value
system.cpu0.iew.wb_consumers                 88612237                       # num instructions consuming a value
system.cpu0.iew.wb_rate                      2.204634                       # insts written-back per cycle
system.cpu0.iew.wb_fanout                    0.562757                       # average fanout of values written-back
system.cpu0.commit.commitSquashedInsts       48335291                       # The number of squashed insts skipped by commit
system.cpu0.commit.commitNonSpecStalls            110                       # The number of times commit has been forced to stall to communicate backwards
system.cpu0.commit.branchMispredicts          1382490                       # The number of times a branch was mispredicted
system.cpu0.commit.committed_per_cycle::samples     23201012                       # Number of insts commited each cycle
system.cpu0.commit.committed_per_cycle::mean     1.807787                       # Number of insts commited each cycle
system.cpu0.commit.committed_per_cycle::stdev     2.419101                       # Number of insts commited each cycle
system.cpu0.commit.committed_per_cycle::underflows            0      0.00%      0.00% # Number of insts commited each cycle
system.cpu0.commit.committed_per_cycle::0     10626146     45.80%     45.80% # Number of insts commited each cycle
system.cpu0.commit.committed_per_cycle::1      3071467     13.24%     59.04% # Number of insts commited each cycle
system.cpu0.commit.committed_per_cycle::2      3456248     14.90%     73.94% # Number of insts commited each cycle
system.cpu0.commit.committed_per_cycle::3      1858984      8.01%     81.95% # Number of insts commited each cycle
system.cpu0.commit.committed_per_cycle::4       956759      4.12%     86.07% # Number of insts commited each cycle
system.cpu0.commit.committed_per_cycle::5       775979      3.34%     89.42% # Number of insts commited each cycle
system.cpu0.commit.committed_per_cycle::6       323035      1.39%     90.81% # Number of insts commited each cycle
system.cpu0.commit.committed_per_cycle::7       322724      1.39%     92.20% # Number of insts commited each cycle
system.cpu0.commit.committed_per_cycle::8      1809670      7.80%    100.00% # Number of insts commited each cycle
system.cpu0.commit.committed_per_cycle::overflows            0      0.00%    100.00% # Number of insts commited each cycle
system.cpu0.commit.committed_per_cycle::min_value            0                       # Number of insts commited each cycle
system.cpu0.commit.committed_per_cycle::max_value            8                       # Number of insts commited each cycle
system.cpu0.commit.committed_per_cycle::total     23201012                       # Number of insts commited each cycle
system.cpu0.commit.committedInsts            19063832                       # Number of instructions committed
system.cpu0.commit.committedOps              41942484                       # Number of ops (including micro ops) committed
system.cpu0.commit.swp_count                        0                       # Number of s/w prefetches committed
system.cpu0.commit.refs                       5409698                       # Number of memory references committed
system.cpu0.commit.loads                      3741650                       # Number of loads committed
system.cpu0.commit.membars                         60                       # Number of memory barriers committed
system.cpu0.commit.branches                   4388351                       # Number of branches committed
system.cpu0.commit.vec_insts                        0                       # Number of committed Vector instructions.
system.cpu0.commit.fp_insts                   3157062                       # Number of committed floating point instructions.
system.cpu0.commit.int_insts                 39236701                       # Number of committed integer instructions.
system.cpu0.commit.function_calls              374174                       # Number of function calls committed.
system.cpu0.commit.op_class_0::No_OpClass       723773      1.73%      1.73% # Class of committed instruction
system.cpu0.commit.op_class_0::IntAlu        33380409     79.59%     81.31% # Class of committed instruction
system.cpu0.commit.op_class_0::IntMult            687      0.00%     81.31% # Class of committed instruction
system.cpu0.commit.op_class_0::IntDiv           49367      0.12%     81.43% # Class of committed instruction
system.cpu0.commit.op_class_0::FloatAdd       2378550      5.67%     87.10% # Class of committed instruction
system.cpu0.commit.op_class_0::FloatCmp             0      0.00%     87.10% # Class of committed instruction
system.cpu0.commit.op_class_0::FloatCvt             0      0.00%     87.10% # Class of committed instruction
system.cpu0.commit.op_class_0::FloatMult            0      0.00%     87.10% # Class of committed instruction
system.cpu0.commit.op_class_0::FloatMultAcc            0      0.00%     87.10% # Class of committed instruction
system.cpu0.commit.op_class_0::FloatDiv             0      0.00%     87.10% # Class of committed instruction
system.cpu0.commit.op_class_0::FloatMisc            0      0.00%     87.10% # Class of committed instruction
system.cpu0.commit.op_class_0::FloatSqrt            0      0.00%     87.10% # Class of committed instruction
system.cpu0.commit.op_class_0::SimdAdd              0      0.00%     87.10% # Class of committed instruction
system.cpu0.commit.op_class_0::SimdAddAcc            0      0.00%     87.10% # Class of committed instruction
system.cpu0.commit.op_class_0::SimdAlu              0      0.00%     87.10% # Class of committed instruction
system.cpu0.commit.op_class_0::SimdCmp              0      0.00%     87.10% # Class of committed instruction
system.cpu0.commit.op_class_0::SimdCvt              0      0.00%     87.10% # Class of committed instruction
system.cpu0.commit.op_class_0::SimdMisc             0      0.00%     87.10% # Class of committed instruction
system.cpu0.commit.op_class_0::SimdMult             0      0.00%     87.10% # Class of committed instruction
system.cpu0.commit.op_class_0::SimdMultAcc            0      0.00%     87.10% # Class of committed instruction
system.cpu0.commit.op_class_0::SimdShift            0      0.00%     87.10% # Class of committed instruction
system.cpu0.commit.op_class_0::SimdShiftAcc            0      0.00%     87.10% # Class of committed instruction
system.cpu0.commit.op_class_0::SimdSqrt             0      0.00%     87.10% # Class of committed instruction
system.cpu0.commit.op_class_0::SimdFloatAdd            0      0.00%     87.10% # Class of committed instruction
system.cpu0.commit.op_class_0::SimdFloatAlu            0      0.00%     87.10% # Class of committed instruction
system.cpu0.commit.op_class_0::SimdFloatCmp            0      0.00%     87.10% # Class of committed instruction
system.cpu0.commit.op_class_0::SimdFloatCvt            0      0.00%     87.10% # Class of committed instruction
system.cpu0.commit.op_class_0::SimdFloatDiv            0      0.00%     87.10% # Class of committed instruction
system.cpu0.commit.op_class_0::SimdFloatMisc            0      0.00%     87.10% # Class of committed instruction
system.cpu0.commit.op_class_0::SimdFloatMult            0      0.00%     87.10% # Class of committed instruction
system.cpu0.commit.op_class_0::SimdFloatMultAcc            0      0.00%     87.10% # Class of committed instruction
system.cpu0.commit.op_class_0::SimdFloatSqrt            0      0.00%     87.10% # Class of committed instruction
system.cpu0.commit.op_class_0::MemRead        2973380      7.09%     94.19% # Class of committed instruction
system.cpu0.commit.op_class_0::MemWrite       1668048      3.98%     98.17% # Class of committed instruction
system.cpu0.commit.op_class_0::FloatMemRead       768270      1.83%    100.00% # Class of committed instruction
system.cpu0.commit.op_class_0::FloatMemWrite            0      0.00%    100.00% # Class of committed instruction
system.cpu0.commit.op_class_0::IprAccess            0      0.00%    100.00% # Class of committed instruction
system.cpu0.commit.op_class_0::InstPrefetch            0      0.00%    100.00% # Class of committed instruction
system.cpu0.commit.op_class_0::total         41942484                       # Class of committed instruction
system.cpu0.commit.bw_lim_events              1809670                       # number cycles where commit BW limit reached
system.cpu0.rob.rob_reads                   111669117                       # The number of ROB reads
system.cpu0.rob.rob_writes                  188027287                       # The number of ROB writes
system.cpu0.timesIdled                             59                       # Number of times that the entire CPU went into an idle state and unscheduled itself
system.cpu0.idleCycles                            383                       # Total number of cycles that the CPU has spent unscheduled due to idling
system.cpu0.committedInsts                   19063832                       # Number of Instructions Simulated
system.cpu0.committedOps                     41942484                       # Number of Ops (including micro ops) Simulated
system.cpu0.cpi                              1.601708                       # CPI: Cycles Per Instruction
system.cpu0.cpi_total                        1.601708                       # CPI: Total CPI of All Threads
system.cpu0.ipc                              0.624334                       # IPC: Instructions Per Cycle
system.cpu0.ipc_total                        0.624334                       # IPC: Total IPC of All Threads
system.cpu0.int_regfile_reads                87491526                       # number of integer regfile reads
system.cpu0.int_regfile_writes               51658393                       # number of integer regfile writes
system.cpu0.fp_regfile_reads                 10879798                       # number of floating regfile reads
system.cpu0.fp_regfile_writes                 6497668                       # number of floating regfile writes
system.cpu0.cc_regfile_reads                 36426570                       # number of cc regfile reads
system.cpu0.cc_regfile_writes                18095314                       # number of cc regfile writes
system.cpu0.misc_regfile_reads               22154691                       # number of misc regfile reads
system.cpu0.dcache.tags.pwrStateResidencyTicks::UNDEFINED  15267344125                       # Cumulative time (in ticks) in various power states
system.cpu0.dcache.tags.replacements            18953                       # number of replacements
system.cpu0.dcache.tags.tagsinuse                1024                       # Cycle average of tags in use
system.cpu0.dcache.tags.total_refs             482919                       # Total number of references to valid blocks.
system.cpu0.dcache.tags.sampled_refs            18953                       # Sample count of references to valid blocks.
system.cpu0.dcache.tags.avg_refs            25.479818                       # Average number of references to valid blocks.
system.cpu0.dcache.tags.warmup_cycle                0                       # Cycle when the warmup percentage was hit.
system.cpu0.dcache.tags.occ_blocks::cpu0.data         1024                       # Average occupied blocks per requestor
system.cpu0.dcache.tags.occ_percent::cpu0.data            1                       # Average percentage of cache occupancy
system.cpu0.dcache.tags.occ_percent::total            1                       # Average percentage of cache occupancy
system.cpu0.dcache.tags.occ_task_id_blocks::1024         1024                       # Occupied blocks per task id
system.cpu0.dcache.tags.age_task_id_blocks_1024::0            8                       # Occupied blocks per task id
system.cpu0.dcache.tags.age_task_id_blocks_1024::1          128                       # Occupied blocks per task id
system.cpu0.dcache.tags.age_task_id_blocks_1024::2          695                       # Occupied blocks per task id
system.cpu0.dcache.tags.age_task_id_blocks_1024::3          136                       # Occupied blocks per task id
system.cpu0.dcache.tags.age_task_id_blocks_1024::4           57                       # Occupied blocks per task id
system.cpu0.dcache.tags.occ_task_id_percent::1024            1                       # Percentage of cache occupancy per task id
system.cpu0.dcache.tags.tag_accesses         33520017                       # Number of tag accesses
system.cpu0.dcache.tags.data_accesses        33520017                       # Number of data accesses
system.cpu0.dcache.pwrStateResidencyTicks::UNDEFINED  15267344125                       # Cumulative time (in ticks) in various power states
system.cpu0.dcache.ReadReq_hits::cpu0.data      6684945                       # number of ReadReq hits
system.cpu0.dcache.ReadReq_hits::total        6684945                       # number of ReadReq hits
system.cpu0.dcache.WriteReq_hits::cpu0.data      1658413                       # number of WriteReq hits
system.cpu0.dcache.WriteReq_hits::total       1658413                       # number of WriteReq hits
system.cpu0.dcache.demand_hits::cpu0.data      8343358                       # number of demand (read+write) hits
system.cpu0.dcache.demand_hits::total         8343358                       # number of demand (read+write) hits
system.cpu0.dcache.overall_hits::cpu0.data      8343358                       # number of overall hits
system.cpu0.dcache.overall_hits::total        8343358                       # number of overall hits
system.cpu0.dcache.ReadReq_misses::cpu0.data        21946                       # number of ReadReq misses
system.cpu0.dcache.ReadReq_misses::total        21946                       # number of ReadReq misses
system.cpu0.dcache.WriteReq_misses::cpu0.data         9962                       # number of WriteReq misses
system.cpu0.dcache.WriteReq_misses::total         9962                       # number of WriteReq misses
system.cpu0.dcache.demand_misses::cpu0.data        31908                       # number of demand (read+write) misses
system.cpu0.dcache.demand_misses::total         31908                       # number of demand (read+write) misses
system.cpu0.dcache.overall_misses::cpu0.data        31908                       # number of overall misses
system.cpu0.dcache.overall_misses::total        31908                       # number of overall misses
system.cpu0.dcache.ReadReq_miss_latency::cpu0.data   1399078500                       # number of ReadReq miss cycles
system.cpu0.dcache.ReadReq_miss_latency::total   1399078500                       # number of ReadReq miss cycles
system.cpu0.dcache.WriteReq_miss_latency::cpu0.data    926932000                       # number of WriteReq miss cycles
system.cpu0.dcache.WriteReq_miss_latency::total    926932000                       # number of WriteReq miss cycles
system.cpu0.dcache.demand_miss_latency::cpu0.data   2326010500                       # number of demand (read+write) miss cycles
system.cpu0.dcache.demand_miss_latency::total   2326010500                       # number of demand (read+write) miss cycles
system.cpu0.dcache.overall_miss_latency::cpu0.data   2326010500                       # number of overall miss cycles
system.cpu0.dcache.overall_miss_latency::total   2326010500                       # number of overall miss cycles
system.cpu0.dcache.ReadReq_accesses::cpu0.data      6706891                       # number of ReadReq accesses(hits+misses)
system.cpu0.dcache.ReadReq_accesses::total      6706891                       # number of ReadReq accesses(hits+misses)
system.cpu0.dcache.WriteReq_accesses::cpu0.data      1668375                       # number of WriteReq accesses(hits+misses)
system.cpu0.dcache.WriteReq_accesses::total      1668375                       # number of WriteReq accesses(hits+misses)
system.cpu0.dcache.demand_accesses::cpu0.data      8375266                       # number of demand (read+write) accesses
system.cpu0.dcache.demand_accesses::total      8375266                       # number of demand (read+write) accesses
system.cpu0.dcache.overall_accesses::cpu0.data      8375266                       # number of overall (read+write) accesses
system.cpu0.dcache.overall_accesses::total      8375266                       # number of overall (read+write) accesses
system.cpu0.dcache.ReadReq_miss_rate::cpu0.data     0.003272                       # miss rate for ReadReq accesses
system.cpu0.dcache.ReadReq_miss_rate::total     0.003272                       # miss rate for ReadReq accesses
system.cpu0.dcache.WriteReq_miss_rate::cpu0.data     0.005971                       # miss rate for WriteReq accesses
system.cpu0.dcache.WriteReq_miss_rate::total     0.005971                       # miss rate for WriteReq accesses
system.cpu0.dcache.demand_miss_rate::cpu0.data     0.003810                       # miss rate for demand accesses
system.cpu0.dcache.demand_miss_rate::total     0.003810                       # miss rate for demand accesses
[...]
system.l2.ReadCleanReq_miss_rate::cpu0.inst     0.003145                       # miss rate for ReadCleanReq accesses
system.l2.ReadCleanReq_miss_rate::total      0.003145                       # miss rate for ReadCleanReq accesses
system.l2.ReadSharedReq_miss_rate::cpu0.data     0.638271                       # miss rate for ReadSharedReq accesses
system.l2.ReadSharedReq_miss_rate::total     0.638271                       # miss rate for ReadSharedReq accesses
system.l2.demand_miss_rate::cpu0.inst        0.003145                       # miss rate for demand accesses
system.l2.demand_miss_rate::cpu0.data        0.806469                       # miss rate for demand accesses
system.l2.demand_miss_rate::total            0.780387                       # miss rate for demand accesses
system.l2.overall_miss_rate::cpu0.inst       0.003145                       # miss rate for overall accesses
system.l2.overall_miss_rate::cpu0.data       0.806469                       # miss rate for overall accesses
system.l2.overall_miss_rate::total           0.780387                       # miss rate for overall accesses
system.l2.ReadExReq_avg_miss_latency::cpu0.data 93315.296284                       # average ReadExReq miss latency
system.l2.ReadExReq_avg_miss_latency::total 93315.296284                       # average ReadExReq miss latency
system.l2.ReadCleanReq_avg_miss_latency::cpu0.inst       103750                       # average ReadCleanReq miss latency
system.l2.ReadCleanReq_avg_miss_latency::total       103750                       # average ReadCleanReq miss latency
system.l2.ReadSharedReq_avg_miss_latency::cpu0.data 107670.218038                       # average ReadSharedReq miss latency
system.l2.ReadSharedReq_avg_miss_latency::total 107670.218038                       # average ReadSharedReq miss latency
system.l2.demand_avg_miss_latency::cpu0.inst       103750                       # average overall miss latency
system.l2.demand_avg_miss_latency::cpu0.data 99000.915931                       # average overall miss latency
system.l2.demand_avg_miss_latency::total 99001.537254                       # average overall miss latency
system.l2.overall_avg_miss_latency::cpu0.inst       103750                       # average overall miss latency
system.l2.overall_avg_miss_latency::cpu0.data 99000.915931                       # average overall miss latency
system.l2.overall_avg_miss_latency::total 99001.537254                       # average overall miss latency
system.l2.blocked_cycles::no_mshrs                  0                       # number of cycles access was blocked
system.l2.blocked_cycles::no_targets                0                       # number of cycles access was blocked
system.l2.blocked::no_mshrs                         0                       # number of cycles access was blocked
system.l2.blocked::no_targets                       0                       # number of cycles access was blocked
system.l2.avg_blocked_cycles::no_mshrs            nan                       # average number of cycles each access was blocked
system.l2.avg_blocked_cycles::no_targets          nan                       # average number of cycles each access was blocked
system.l2.writebacks::writebacks                15158                       # number of writebacks
system.l2.writebacks::total                     15158                       # number of writebacks
system.l2.ReadExReq_mshr_misses::cpu0.data         9231                       # number of ReadExReq MSHR misses
system.l2.ReadExReq_mshr_misses::total           9231                       # number of ReadExReq MSHR misses
system.l2.ReadCleanReq_mshr_misses::cpu0.inst            2                       # number of ReadCleanReq MSHR misses
system.l2.ReadCleanReq_mshr_misses::total            2                       # number of ReadCleanReq MSHR misses
system.l2.ReadSharedReq_mshr_misses::cpu0.data         6054                       # number of ReadSharedReq MSHR misses
system.l2.ReadSharedReq_mshr_misses::total         6054                       # number of ReadSharedReq MSHR misses
system.l2.demand_mshr_misses::cpu0.inst             2                       # number of demand (read+write) MSHR misses
system.l2.demand_mshr_misses::cpu0.data         15285                       # number of demand (read+write) MSHR misses
system.l2.demand_mshr_misses::total             15287                       # number of demand (read+write) MSHR misses
system.l2.overall_mshr_misses::cpu0.inst            2                       # number of overall MSHR misses
system.l2.overall_mshr_misses::cpu0.data        15285                       # number of overall MSHR misses
system.l2.overall_mshr_misses::total            15287                       # number of overall MSHR misses
system.l2.ReadExReq_mshr_miss_latency::cpu0.data    769083500                       # number of ReadExReq MSHR miss cycles
system.l2.ReadExReq_mshr_miss_latency::total    769083500                       # number of ReadExReq MSHR miss cycles
system.l2.ReadCleanReq_mshr_miss_latency::cpu0.inst       187500                       # number of ReadCleanReq MSHR miss cycles
system.l2.ReadCleanReq_mshr_miss_latency::total       187500                       # number of ReadCleanReq MSHR miss cycles
system.l2.ReadSharedReq_mshr_miss_latency::cpu0.data    591295500                       # number of ReadSharedReq MSHR miss cycles
system.l2.ReadSharedReq_mshr_miss_latency::total    591295500                       # number of ReadSharedReq MSHR miss cycles
system.l2.demand_mshr_miss_latency::cpu0.inst       187500                       # number of demand (read+write) MSHR miss cycles
system.l2.demand_mshr_miss_latency::cpu0.data   1360379000                       # number of demand (read+write) MSHR miss cycles
system.l2.demand_mshr_miss_latency::total   1360566500                       # number of demand (read+write) MSHR miss cycles
system.l2.overall_mshr_miss_latency::cpu0.inst       187500                       # number of overall MSHR miss cycles
system.l2.overall_mshr_miss_latency::cpu0.data   1360379000                       # number of overall MSHR miss cycles
system.l2.overall_mshr_miss_latency::total   1360566500                       # number of overall MSHR miss cycles
system.l2.ReadExReq_mshr_miss_rate::cpu0.data     0.974968                       # mshr miss rate for ReadExReq accesses
system.l2.ReadExReq_mshr_miss_rate::total     0.974968                       # mshr miss rate for ReadExReq accesses
system.l2.ReadCleanReq_mshr_miss_rate::cpu0.inst     0.003145                       # mshr miss rate for ReadCleanReq accesses
system.l2.ReadCleanReq_mshr_miss_rate::total     0.003145                       # mshr miss rate for ReadCleanReq accesses
system.l2.ReadSharedReq_mshr_miss_rate::cpu0.data     0.638271                       # mshr miss rate for ReadSharedReq accesses
system.l2.ReadSharedReq_mshr_miss_rate::total     0.638271                       # mshr miss rate for ReadSharedReq accesses
system.l2.demand_mshr_miss_rate::cpu0.inst     0.003145                       # mshr miss rate for demand accesses
system.l2.demand_mshr_miss_rate::cpu0.data     0.806469                       # mshr miss rate for demand accesses
system.l2.demand_mshr_miss_rate::total       0.780387                       # mshr miss rate for demand accesses
system.l2.overall_mshr_miss_rate::cpu0.inst     0.003145                       # mshr miss rate for overall accesses
system.l2.overall_mshr_miss_rate::cpu0.data     0.806469                       # mshr miss rate for overall accesses
system.l2.overall_mshr_miss_rate::total      0.780387                       # mshr miss rate for overall accesses
system.l2.ReadExReq_avg_mshr_miss_latency::cpu0.data 83315.296284                       # average ReadExReq mshr miss latency
system.l2.ReadExReq_avg_mshr_miss_latency::total 83315.296284                       # average ReadExReq mshr miss latency
system.l2.ReadCleanReq_avg_mshr_miss_latency::cpu0.inst        93750                       # average ReadCleanReq mshr miss latency
system.l2.ReadCleanReq_avg_mshr_miss_latency::total        93750                       # average ReadCleanReq mshr miss latency
system.l2.ReadSharedReq_avg_mshr_miss_latency::cpu0.data 97670.218038                       # average ReadSharedReq mshr miss latency
system.l2.ReadSharedReq_avg_mshr_miss_latency::total 97670.218038                       # average ReadSharedReq mshr miss latency
system.l2.demand_avg_mshr_miss_latency::cpu0.inst        93750                       # average overall mshr miss latency
system.l2.demand_avg_mshr_miss_latency::cpu0.data 89000.915931                       # average overall mshr miss latency
system.l2.demand_avg_mshr_miss_latency::total 89001.537254                       # average overall mshr miss latency
system.l2.overall_avg_mshr_miss_latency::cpu0.inst        93750                       # average overall mshr miss latency
system.l2.overall_avg_mshr_miss_latency::cpu0.data 89000.915931                       # average overall mshr miss latency
system.l2.overall_avg_mshr_miss_latency::total 89001.537254                       # average overall mshr miss latency
system.membus.snoop_filter.tot_requests         30576                       # Total number of requests made to the snoop filter.
system.membus.snoop_filter.hit_single_requests        15290                       # Number of requests hitting in the snoop filter with a single holder of the requested data.
system.membus.snoop_filter.hit_multi_requests            0                       # Number of requests hitting in the snoop filter with multiple (>1) holders of the requested data.
system.membus.snoop_filter.tot_snoops               0                       # Total number of snoops made to the snoop filter.
system.membus.snoop_filter.hit_single_snoops            0                       # Number of snoops hitting in the snoop filter with a single holder of the requested data.
system.membus.snoop_filter.hit_multi_snoops            0                       # Number of snoops hitting in the snoop filter with multiple (>1) holders of the requested data.
system.membus.pwrStateResidencyTicks::UNDEFINED  15267344125                       # Cumulative time (in ticks) in various power states
system.membus.trans_dist::ReadResp               6056                       # Transaction distribution
system.membus.trans_dist::WritebackDirty        15158                       # Transaction distribution
system.membus.trans_dist::CleanEvict              131                       # Transaction distribution
system.membus.trans_dist::ReadExReq              9231                       # Transaction distribution
system.membus.trans_dist::ReadExResp             9231                       # Transaction distribution
system.membus.trans_dist::ReadSharedReq          6056                       # Transaction distribution
system.membus.pkt_count_system.l2.mem_side::system.mem_ctrls.port        45863                       # Packet count per connected master and slave (bytes)
system.membus.pkt_count_system.l2.mem_side::total        45863                       # Packet count per connected master and slave (bytes)
system.membus.pkt_count::total                  45863                       # Packet count per connected master and slave (bytes)
system.membus.pkt_size_system.l2.mem_side::system.mem_ctrls.port      1948480                       # Cumulative packet size per connected master and slave (bytes)
system.membus.pkt_size_system.l2.mem_side::total      1948480                       # Cumulative packet size per connected master and slave (bytes)
system.membus.pkt_size::total                 1948480                       # Cumulative packet size per connected master and slave (bytes)
system.membus.snoops                                0                       # Total snoops (count)
system.membus.snoopTraffic                          0                       # Total snoop traffic (bytes)
system.membus.snoop_fanout::samples             15287                       # Request fanout histogram
system.membus.snoop_fanout::mean                    0                       # Request fanout histogram
system.membus.snoop_fanout::stdev                   0                       # Request fanout histogram
system.membus.snoop_fanout::underflows              0      0.00%      0.00% # Request fanout histogram
system.membus.snoop_fanout::0                   15287    100.00%    100.00% # Request fanout histogram
system.membus.snoop_fanout::1                       0      0.00%    100.00% # Request fanout histogram
system.membus.snoop_fanout::overflows               0      0.00%    100.00% # Request fanout histogram
system.membus.snoop_fanout::min_value               0                       # Request fanout histogram
system.membus.snoop_fanout::max_value               0                       # Request fanout histogram
system.membus.snoop_fanout::total               15287                       # Request fanout histogram
system.membus.reqLayer8.occupancy            94851500                       # Layer occupancy (ticks)
system.membus.reqLayer8.utilization               0.6                       # Layer utilization (%)
system.membus.respLayer1.occupancy           82931500                       # Layer occupancy (ticks)
system.membus.respLayer1.utilization              0.5                       # Layer utilization (%)
system.tol2bus.snoop_filter.tot_requests        39206                       # Total number of requests made to the snoop filter.
system.tol2bus.snoop_filter.hit_single_requests        19591                       # Number of requests hitting in the snoop filter with a single holder of the requested data.
system.tol2bus.snoop_filter.hit_multi_requests           62                       # Number of requests hitting in the snoop filter with multiple (>1) holders of the requested data.
system.tol2bus.snoop_filter.tot_snoops              1                       # Total number of snoops made to the snoop filter.
system.tol2bus.snoop_filter.hit_single_snoops            1                       # Number of snoops hitting in the snoop filter with a single holder of the requested data.
system.tol2bus.snoop_filter.hit_multi_snoops            0                       # Number of snoops hitting in the snoop filter with multiple (>1) holders of the requested data.
system.tol2bus.pwrStateResidencyTicks::UNDEFINED  15267344125                       # Cumulative time (in ticks) in various power states
system.tol2bus.trans_dist::ReadResp             10135                       # Transaction distribution
system.tol2bus.trans_dist::WritebackDirty        32056                       # Transaction distribution
system.tol2bus.trans_dist::WritebackClean          636                       # Transaction distribution
system.tol2bus.trans_dist::CleanEvict            2187                       # Transaction distribution
system.tol2bus.trans_dist::UpgradeReq              14                       # Transaction distribution
system.tol2bus.trans_dist::UpgradeResp             14                       # Transaction distribution
system.tol2bus.trans_dist::ReadExReq             9468                       # Transaction distribution
system.tol2bus.trans_dist::ReadExResp            9468                       # Transaction distribution
system.tol2bus.trans_dist::ReadCleanReq           650                       # Transaction distribution
system.tol2bus.trans_dist::ReadSharedReq         9485                       # Transaction distribution
system.tol2bus.pkt_count_system.cpu0.icache.mem_side::system.l2.cpu_side         1922                       # Packet count per connected master and slave (bytes)
system.tol2bus.pkt_count_system.cpu0.dcache.mem_side::system.l2.cpu_side        56887                       # Packet count per connected master and slave (bytes)
system.tol2bus.pkt_count::total                 58809                       # Packet count per connected master and slave (bytes)
system.tol2bus.pkt_size_system.cpu0.icache.mem_side::system.l2.cpu_side        81408                       # Cumulative packet size per connected master and slave (bytes)
system.tol2bus.pkt_size_system.cpu0.dcache.mem_side::system.l2.cpu_side      2294464                       # Cumulative packet size per connected master and slave (bytes)
system.tol2bus.pkt_size::total                2375872                       # Cumulative packet size per connected master and slave (bytes)
system.tol2bus.snoops                           15304                       # Total snoops (count)
system.tol2bus.snoopTraffic                    971008                       # Total snoop traffic (bytes)
system.tol2bus.snoop_fanout::samples            34907                       # Request fanout histogram
system.tol2bus.snoop_fanout::mean            0.001862                       # Request fanout histogram
system.tol2bus.snoop_fanout::stdev           0.043112                       # Request fanout histogram
system.tol2bus.snoop_fanout::underflows             0      0.00%      0.00% # Request fanout histogram
system.tol2bus.snoop_fanout::0                  34842     99.81%     99.81% # Request fanout histogram
system.tol2bus.snoop_fanout::1                     65      0.19%    100.00% # Request fanout histogram
system.tol2bus.snoop_fanout::2                      0      0.00%    100.00% # Request fanout histogram
system.tol2bus.snoop_fanout::3                      0      0.00%    100.00% # Request fanout histogram
system.tol2bus.snoop_fanout::4                      0      0.00%    100.00% # Request fanout histogram
system.tol2bus.snoop_fanout::5                      0      0.00%    100.00% # Request fanout histogram
system.tol2bus.snoop_fanout::6                      0      0.00%    100.00% # Request fanout histogram
system.tol2bus.snoop_fanout::7                      0      0.00%    100.00% # Request fanout histogram
system.tol2bus.snoop_fanout::8                      0      0.00%    100.00% # Request fanout histogram
system.tol2bus.snoop_fanout::9                      0      0.00%    100.00% # Request fanout histogram
system.tol2bus.snoop_fanout::10                     0      0.00%    100.00% # Request fanout histogram
system.tol2bus.snoop_fanout::11                     0      0.00%    100.00% # Request fanout histogram
system.tol2bus.snoop_fanout::12                     0      0.00%    100.00% # Request fanout histogram
system.tol2bus.snoop_fanout::13                     0      0.00%    100.00% # Request fanout histogram
system.tol2bus.snoop_fanout::14                     0      0.00%    100.00% # Request fanout histogram
system.tol2bus.snoop_fanout::15                     0      0.00%    100.00% # Request fanout histogram
system.tol2bus.snoop_fanout::16                     0      0.00%    100.00% # Request fanout histogram
system.tol2bus.snoop_fanout::overflows              0      0.00%    100.00% # Request fanout histogram
system.tol2bus.snoop_fanout::min_value              0                       # Request fanout histogram
system.tol2bus.snoop_fanout::max_value              1                       # Request fanout histogram
system.tol2bus.snoop_fanout::total              34907                       # Request fanout histogram
system.tol2bus.reqLayer0.occupancy           37137000                       # Layer occupancy (ticks)
system.tol2bus.reqLayer0.utilization              0.2                       # Layer utilization (%)
system.tol2bus.respLayer0.occupancy            975000                       # Layer occupancy (ticks)
system.tol2bus.respLayer0.utilization             0.0                       # Layer utilization (%)
system.tol2bus.respLayer1.occupancy          28436500                       # Layer occupancy (ticks)
system.tol2bus.respLayer1.utilization             0.2                       # Layer utilization (%)

---------- End Simulation Statistics   ----------
