
---------- Begin Simulation Statistics ----------
sim_seconds                                  0.015267                       # Number of seconds simulated
sim_ticks                                 15267344125                       # Number of ticks simulated
final_tick                               5114560281875                       # Number of ticks from beginning of simulation (restored from checkpoints and never reset)
sim_freq                                 1000000000000                       # Frequency of simulated ticks
host_inst_rate                              117440653                       # Simulator instruction rate (inst/s)
host_op_rate                                218354445                       # Simulator op (including micro ops) rate (op/s)
host_tick_rate                              307377349                       # Simulator tick rate (ticks/s)
host_mem_usage                                2332656                       # Number of bytes of host memory used
host_seconds                                    49.67                       # Real time elapsed on the host
sim_insts                                  5833241134                       # Number of instructions simulated
sim_ops                                   10845600288                       # Number of ops (including micro ops) simulated
system.voltage_domain.voltage                       1                       # Voltage in Volts
system.clk_domain.clock                          1000                       # Clock period in ticks
system.mem_ctrls.pwrStateResidencyTicks::UNDEFINED  15267344125                       # Cumulative time (in ticks) in various power states
system.mem_ctrls.bytes_read::cpu0.data       11615040                       # Number of bytes read from this memory
system.mem_ctrls.bytes_read::total           11615040                       # Number of bytes read from this memory
system.mem_ctrls.bytes_written::writebacks        25664                       # Number of bytes written to this memory
system.mem_ctrls.bytes_written::total           25664                       # Number of bytes written to this memory
system.mem_ctrls.num_reads::cpu0.data          181485                       # Number of read requests responded to by this memory
system.mem_ctrls.num_reads::total              181485                       # Number of read requests responded to by this memory
system.mem_ctrls.num_writes::writebacks           401                       # Number of write requests responded to by this memory
system.mem_ctrls.num_writes::total                401                       # Number of write requests responded to by this memory
system.mem_ctrls.bw_read::cpu0.data         760776721                       # Total read bandwidth from this memory (bytes/s)
system.mem_ctrls.bw_read::total             760776721                       # Total read bandwidth from this memory (bytes/s)
system.mem_ctrls.bw_write::writebacks         1680973                       # Write bandwidth from this memory (bytes/s)
system.mem_ctrls.bw_write::total              1680973                       # Write bandwidth from this memory (bytes/s)
system.mem_ctrls.bw_total::writebacks         1680973                       # Total bandwidth to/from this memory (bytes/s)
system.mem_ctrls.bw_total::cpu0.data        760776721                       # Total bandwidth to/from this memory (bytes/s)
system.mem_ctrls.bw_total::total            762457694                       # Total bandwidth to/from this memory (bytes/s)
system.mem_ctrls.readReqs                      181484                       # Number of read requests accepted
system.mem_ctrls.writeReqs                        401                       # Number of write requests accepted
system.mem_ctrls.readBursts                    181484                       # Number of DRAM read bursts, including those serviced by the write queue
system.mem_ctrls.writeBursts                      401                       # Number of DRAM write bursts, including those merged in the write queue
system.mem_ctrls.bytesReadDRAM               11610496                       # Total number of bytes read from DRAM
system.mem_ctrls.bytesReadWrQ                    4480                       # Total number of bytes read from write queue
system.mem_ctrls.bytesWritten                   25728                       # Total number of bytes written to DRAM
system.mem_ctrls.bytesReadSys                11614976                       # Total read bytes from the system interface side
system.mem_ctrls.bytesWrittenSys                25664                       # Total written bytes from the system interface side
system.mem_ctrls.servicedByWrQ                     70                       # Number of DRAM read bursts serviced by the write queue
system.mem_ctrls.mergedWrBursts                     0                       # Number of DRAM write bursts merged with an existing one
system.mem_ctrls.neitherReadNorWriteReqs            0                       # Number of requests that are neither read nor write
system.mem_ctrls.perBankRdBursts::0             11329                       # Per bank write bursts
system.mem_ctrls.perBankRdBursts::1             11260                       # Per bank write bursts
system.mem_ctrls.perBankRdBursts::2             11304                       # Per bank write bursts
system.mem_ctrls.perBankRdBursts::3             11316                       # Per bank write bursts
system.mem_ctrls.perBankRdBursts::4             11415                       # Per bank write bursts
system.mem_ctrls.perBankRdBursts::5             11575                       # Per bank write bursts
system.mem_ctrls.perBankRdBursts::6             11270                       # Per bank write bursts
system.mem_ctrls.perBankRdBursts::7             11199                       # Per bank write bursts
system.mem_ctrls.perBankRdBursts::8             10872                       # Per bank write bursts
system.mem_ctrls.perBankRdBursts::9             11210                       # Per bank write bursts
system.mem_ctrls.perBankRdBursts::10            11207                       # Per bank write bursts
system.mem_ctrls.perBankRdBursts::11            11135                       # Per bank write bursts
system.mem_ctrls.perBankRdBursts::12            11597                       # Per bank write bursts
system.mem_ctrls.perBankRdBursts::13            11467                       # Per bank write bursts
system.mem_ctrls.perBankRdBursts::14            11750                       # Per bank write bursts
system.mem_ctrls.perBankRdBursts::15            11508                       # Per bank write bursts
system.mem_ctrls.perBankWrBursts::0                 0                       # Per bank write bursts
system.mem_ctrls.perBankWrBursts::1                 0                       # Per bank write bursts
system.mem_ctrls.perBankWrBursts::2                 0                       # Per bank write bursts
system.mem_ctrls.perBankWrBursts::3                 0                       # Per bank write bursts
system.mem_ctrls.perBankWrBursts::4                 3                       # Per bank write bursts
system.mem_ctrls.perBankWrBursts::5                84                       # Per bank write bursts
system.mem_ctrls.perBankWrBursts::6               126                       # Per bank write bursts
system.mem_ctrls.perBankWrBursts::7               100                       # Per bank write bursts
system.mem_ctrls.perBankWrBursts::8                 0                       # Per bank write bursts
system.mem_ctrls.perBankWrBursts::9                 0                       # Per bank write bursts
system.mem_ctrls.perBankWrBursts::10                0                       # Per bank write bursts
system.mem_ctrls.perBankWrBursts::11                0                       # Per bank write bursts
system.mem_ctrls.perBankWrBursts::12               89                       # Per bank write bursts
system.mem_ctrls.perBankWrBursts::13                0                       # Per bank write bursts
system.mem_ctrls.perBankWrBursts::14                0                       # Per bank write bursts
system.mem_ctrls.perBankWrBursts::15                0                       # Per bank write bursts
system.mem_ctrls.numRdRetry                         0                       # Number of times read queue was full causing retry
system.mem_ctrls.numWrRetry                         0                       # Number of times write queue was full causing retry
system.mem_ctrls.totGap                   15267277000                       # Total gap between requests
system.mem_ctrls.readPktSize::0                     0                       # Read request sizes (log2)
system.mem_ctrls.readPktSize::1                     0                       # Read request sizes (log2)
system.mem_ctrls.readPktSize::2                     0                       # Read request sizes (log2)
system.mem_ctrls.readPktSize::3                     0                       # Read request sizes (log2)
system.mem_ctrls.readPktSize::4                     0                       # Read request sizes (log2)
system.mem_ctrls.readPktSize::5                     0                       # Read request sizes (log2)
system.mem_ctrls.readPktSize::6                181484                       # Read request sizes (log2)
system.mem_ctrls.writePktSize::0                    0                       # Write request sizes (log2)
system.mem_ctrls.writePktSize::1                    0                       # Write request sizes (log2)
system.mem_ctrls.writePktSize::2                    0                       # Write request sizes (log2)
system.mem_ctrls.writePktSize::3                    0                       # Write request sizes (log2)
system.mem_ctrls.writePktSize::4                    0                       # Write request sizes (log2)
system.mem_ctrls.writePktSize::5                    0                       # Write request sizes (log2)
system.mem_ctrls.writePktSize::6                  401                       # Write request sizes (log2)
system.mem_ctrls.rdQLenPdf::0                  139131                       # What read queue length does an incoming req see
system.mem_ctrls.rdQLenPdf::1                   39810                       # What read queue length does an incoming req see
system.mem_ctrls.rdQLenPdf::2                    2419                       # What read queue length does an incoming req see
system.mem_ctrls.rdQLenPdf::3                      54                       # What read queue length does an incoming req see
system.mem_ctrls.rdQLenPdf::4                       0                       # What read queue length does an incoming req see
system.mem_ctrls.rdQLenPdf::5                       0                       # What read queue length does an incoming req see
system.mem_ctrls.rdQLenPdf::6                       0                       # What read queue length does an incoming req see
system.mem_ctrls.rdQLenPdf::7                       0                       # What read queue length does an incoming req see
system.mem_ctrls.rdQLenPdf::8                       0                       # What read queue length does an incoming req see
system.mem_ctrls.rdQLenPdf::9                       0                       # What read queue length does an incoming req see
system.mem_ctrls.rdQLenPdf::10                      0                       # What read queue length does an incoming req see
system.mem_ctrls.rdQLenPdf::11                      0                       # What read queue length does an incoming req see
system.mem_ctrls.rdQLenPdf::12                      0                       # What read queue length does an incoming req see
system.mem_ctrls.rdQLenPdf::13                      0                       # What read queue length does an incoming req see
system.mem_ctrls.rdQLenPdf::14                      0                       # What read queue length does an incoming req see
system.mem_ctrls.rdQLenPdf::15                      0                       # What read queue length does an incoming req see
system.mem_ctrls.rdQLenPdf::16                      0                       # What read queue length does an incoming req see
system.mem_ctrls.rdQLenPdf::17                      0                       # What read queue length does an incoming req see
system.mem_ctrls.rdQLenPdf::18                      0                       # What read queue length does an incoming req see
system.mem_ctrls.rdQLenPdf::19                      0                       # What read queue length does an incoming req see
system.mem_ctrls.rdQLenPdf::20                      0                       # What read queue length does an incoming req see
system.mem_ctrls.rdQLenPdf::21                      0                       # What read queue length does an incoming req see
system.mem_ctrls.rdQLenPdf::22                      0                       # What read queue length does an incoming req see
system.mem_ctrls.rdQLenPdf::23                      0                       # What read queue length does an incoming req see
system.mem_ctrls.rdQLenPdf::24                      0                       # What read queue length does an incoming req see
system.mem_ctrls.rdQLenPdf::25                      0                       # What read queue length does an incoming req see
system.mem_ctrls.rdQLenPdf::26                      0                       # What read queue length does an incoming req see
system.mem_ctrls.rdQLenPdf::27                      0                       # What read queue length does an incoming req see
system.mem_ctrls.rdQLenPdf::28                      0                       # What read queue length does an incoming req see
system.mem_ctrls.rdQLenPdf::29                      0                       # What read queue length does an incoming req see
system.mem_ctrls.rdQLenPdf::30                      0                       # What read queue length does an incoming req see
system.mem_ctrls.rdQLenPdf::31                      0                       # What read queue length does an incoming req see
system.mem_ctrls.wrQLenPdf::0                       0                       # What write queue length does an incoming req see
system.mem_ctrls.wrQLenPdf::1                       0                       # What write queue length does an incoming req see
system.mem_ctrls.wrQLenPdf::2                       0                       # What write queue length does an incoming req see
system.mem_ctrls.wrQLenPdf::3                       0                       # What write queue length does an incoming req see
system.mem_ctrls.wrQLenPdf::4                       0                       # What write queue length does an incoming req see
system.mem_ctrls.wrQLenPdf::5                       0                       # What write queue length does an incoming req see
system.mem_ctrls.wrQLenPdf::6                       0                       # What write queue length does an incoming req see
system.mem_ctrls.wrQLenPdf::7                       0                       # What write queue length does an incoming req see
system.mem_ctrls.wrQLenPdf::8                       0                       # What write queue length does an incoming req see
system.mem_ctrls.wrQLenPdf::9                       0                       # What write queue length does an incoming req see
system.mem_ctrls.wrQLenPdf::10                      0                       # What write queue length does an incoming req see
system.mem_ctrls.wrQLenPdf::11                      0                       # What write queue length does an incoming req see
system.mem_ctrls.wrQLenPdf::12                      0                       # What write queue length does an incoming req see
system.mem_ctrls.wrQLenPdf::13                      0                       # What write queue length does an incoming req see
system.mem_ctrls.wrQLenPdf::14                      0                       # What write queue length does an incoming req see
system.mem_ctrls.wrQLenPdf::15                      1                       # What write queue length does an incoming req see
system.mem_ctrls.wrQLenPdf::16                      1                       # What write queue length does an incoming req see
system.mem_ctrls.wrQLenPdf::17                     25                       # What write queue length does an incoming req see
system.mem_ctrls.wrQLenPdf::18                     25                       # What write queue length does an incoming req see
system.mem_ctrls.wrQLenPdf::19                     25                       # What write queue length does an incoming req see
system.mem_ctrls.wrQLenPdf::20                     25                       # What write queue length does an incoming req see
system.mem_ctrls.wrQLenPdf::21                     25                       # What write queue length does an incoming req see
system.mem_ctrls.wrQLenPdf::22                     25                       # What write queue length does an incoming req see
system.mem_ctrls.wrQLenPdf::23                     24                       # What write queue length does an incoming req see
system.mem_ctrls.wrQLenPdf::24                     25                       # What write queue length does an incoming req see
system.mem_ctrls.wrQLenPdf::25                     25                       # What write queue length does an incoming req see
system.mem_ctrls.wrQLenPdf::26                     25                       # What write queue length does an incoming req see
system.mem_ctrls.wrQLenPdf::27                     25                       # What write queue length does an incoming req see
system.mem_ctrls.wrQLenPdf::28                     25                       # What write queue length does an incoming req see
system.mem_ctrls.wrQLenPdf::29                     25                       # What write queue length does an incoming req see
system.mem_ctrls.wrQLenPdf::30                     25                       # What write queue length does an incoming req see
system.mem_ctrls.wrQLenPdf::31                     25                       # What write queue length does an incoming req see
system.mem_ctrls.wrQLenPdf::32                     25                       # What write queue length does an incoming req see
system.mem_ctrls.wrQLenPdf::33                      0                       # What write queue length does an incoming req see
system.mem_ctrls.wrQLenPdf::34                      0                       # What write queue length does an incoming req see
system.mem_ctrls.wrQLenPdf::35                      0                       # What write queue length does an incoming req see
system.mem_ctrls.wrQLenPdf::36                      0                       # What write queue length does an incoming req see
system.mem_ctrls.wrQLenPdf::37                      0                       # What write queue length does an incoming req see
system.mem_ctrls.wrQLenPdf::38                      0                       # What write queue length does an incoming req see
system.mem_ctrls.wrQLenPdf::39                      0                       # What write queue length does an incoming req see
system.mem_ctrls.wrQLenPdf::40                      0                       # What write queue length does an incoming req see
system.mem_ctrls.wrQLenPdf::41                      0                       # What write queue length does an incoming req see
system.mem_ctrls.wrQLenPdf::42                      0                       # What write queue length does an incoming req see
system.mem_ctrls.wrQLenPdf::43                      0                       # What write queue length does an incoming req see
system.mem_ctrls.wrQLenPdf::44                      0                       # What write queue length does an incoming req see
system.mem_ctrls.wrQLenPdf::45                      0                       # What write queue length does an incoming req see
system.mem_ctrls.wrQLenPdf::46                      0                       # What write queue length does an incoming req see
system.mem_ctrls.wrQLenPdf::47                      0                       # What write queue length does an incoming req see
system.mem_ctrls.wrQLenPdf::48                      0                       # What write queue length does an incoming req see
system.mem_ctrls.wrQLenPdf::49                      0                       # What write queue length does an incoming req see
system.mem_ctrls.wrQLenPdf::50                      0                       # What write queue length does an incoming req see
system.mem_ctrls.wrQLenPdf::51                      0                       # What write queue length does an incoming req see
system.mem_ctrls.wrQLenPdf::52                      0                       # What write queue length does an incoming req see
system.mem_ctrls.wrQLenPdf::53                      0                       # What write queue length does an incoming req see
system.mem_ctrls.wrQLenPdf::54                      0                       # What write queue length does an incoming req see
system.mem_ctrls.wrQLenPdf::55                      0                       # What write queue length does an incoming req see
system.mem_ctrls.wrQLenPdf::56                      0                       # What write queue length does an incoming req see
system.mem_ctrls.wrQLenPdf::57                      0                       # What write queue length does an incoming req see
system.mem_ctrls.wrQLenPdf::58                      0                       # What write queue length does an incoming req see
system.mem_ctrls.wrQLenPdf::59                      0                       # What write queue length does an incoming req see
system.mem_ctrls.wrQLenPdf::60                      0                       # What write queue length does an incoming req see
system.mem_ctrls.wrQLenPdf::61                      0                       # What write queue length does an incoming req see
system.mem_ctrls.wrQLenPdf::62                      0                       # What write queue length does an incoming req see
system.mem_ctrls.wrQLenPdf::63                      0                       # What write queue length does an incoming req see
system.mem_ctrls.bytesPerActivate::samples        96277                       # Bytes accessed per row activation
system.mem_ctrls.bytesPerActivate::mean    120.849964                       # Bytes accessed per row activation
system.mem_ctrls.bytesPerActivate::gmean   104.295863                       # Bytes accessed per row activation
system.mem_ctrls.bytesPerActivate::stdev    72.541889                       # Bytes accessed per row activation
system.mem_ctrls.bytesPerActivate::0-127        46289     48.08%     48.08% # Bytes accessed per row activation
system.mem_ctrls.bytesPerActivate::128-255        41042     42.63%     90.71% # Bytes accessed per row activation
system.mem_ctrls.bytesPerActivate::256-383         7855      8.16%     98.87% # Bytes accessed per row activation
system.mem_ctrls.bytesPerActivate::384-511          991      1.03%     99.90% # Bytes accessed per row activation
system.mem_ctrls.bytesPerActivate::512-639           81      0.08%     99.98% # Bytes accessed per row activation
system.mem_ctrls.bytesPerActivate::640-767            7      0.01%     99.99% # Bytes accessed per row activation
system.mem_ctrls.bytesPerActivate::768-895            4      0.00%     99.99% # Bytes accessed per row activation
system.mem_ctrls.bytesPerActivate::896-1023            1      0.00%     99.99% # Bytes accessed per row activation
system.mem_ctrls.bytesPerActivate::1024-1151            7      0.01%    100.00% # Bytes accessed per row activation
system.mem_ctrls.bytesPerActivate::total        96277                       # Bytes accessed per row activation
system.mem_ctrls.rdPerTurnAround::samples           25                       # Reads before turning the bus around for writes
system.mem_ctrls.rdPerTurnAround::mean    7292.480000                       # Reads before turning the bus around for writes
system.mem_ctrls.rdPerTurnAround::gmean   7028.297618                       # Reads before turning the bus around for writes
system.mem_ctrls.rdPerTurnAround::stdev   1947.805777                       # Reads before turning the bus around for writes
system.mem_ctrls.rdPerTurnAround::3584-4095            1      4.00%      4.00% # Reads before turning the bus around for writes
system.mem_ctrls.rdPerTurnAround::4096-4607            2      8.00%     12.00% # Reads before turning the bus around for writes
system.mem_ctrls.rdPerTurnAround::4608-5119            1      4.00%     16.00% # Reads before turning the bus around for writes
system.mem_ctrls.rdPerTurnAround::5120-5631            1      4.00%     20.00% # Reads before turning the bus around for writes
system.mem_ctrls.rdPerTurnAround::5632-6143            3     12.00%     32.00% # Reads before turning the bus around for writes
system.mem_ctrls.rdPerTurnAround::6144-6655            1      4.00%     36.00% # Reads before turning the bus around for writes
system.mem_ctrls.rdPerTurnAround::6656-7167            4     16.00%     52.00% # Reads before turning the bus around for writes
system.mem_ctrls.rdPerTurnAround::7168-7679            3     12.00%     64.00% # Reads before turning the bus around for writes
system.mem_ctrls.rdPerTurnAround::8192-8703            3     12.00%     76.00% # Reads before turning the bus around for writes
system.mem_ctrls.rdPerTurnAround::8704-9215            1      4.00%     80.00% # Reads before turning the bus around for writes
system.mem_ctrls.rdPerTurnAround::9216-9727            2      8.00%     88.00% # Reads before turning the bus around for writes
system.mem_ctrls.rdPerTurnAround::9728-10239            1      4.00%     92.00% # Reads before turning the bus around for writes
system.mem_ctrls.rdPerTurnAround::10240-10751            1      4.00%     96.00% # Reads before turning the bus around for writes
system.mem_ctrls.rdPerTurnAround::10752-11263            1      4.00%    100.00% # Reads before turning the bus around for writes
system.mem_ctrls.rdPerTurnAround::total            25                       # Reads before turning the bus around for writes
system.mem_ctrls.wrPerTurnAround::samples           25                       # Writes before turning the bus around for reads
system.mem_ctrls.wrPerTurnAround::mean      16.080000                       # Writes before turning the bus around for reads
system.mem_ctrls.wrPerTurnAround::gmean     16.075559                       # Writes before turning the bus around for reads
system.mem_ctrls.wrPerTurnAround::stdev      0.400000                       # Writes before turning the bus around for reads
system.mem_ctrls.wrPerTurnAround::16               24     96.00%     96.00% # Writes before turning the bus around for reads
system.mem_ctrls.wrPerTurnAround::18                1      4.00%    100.00% # Writes before turning the bus around for reads
system.mem_ctrls.wrPerTurnAround::total            25                       # Writes before turning the bus around for reads
system.mem_ctrls.totQLat                   4559051000                       # Total ticks spent queuing
system.mem_ctrls.totMemAccLat              7960563500                       # Total ticks spent from burst creation until serviced by the DRAM
system.mem_ctrls.totBusLat                  907070000                       # Total ticks spent in databus transfers
system.mem_ctrls.avgQLat                     25130.65                       # Average queueing delay per DRAM burst
system.mem_ctrls.avgBusLat                    5000.00                       # Average bus latency per DRAM burst
system.mem_ctrls.avgMemAccLat                43880.65                       # Average memory access latency per DRAM burst
system.mem_ctrls.avgRdBW                       760.48                       # Average DRAM read bandwidth in MiByte/s
system.mem_ctrls.avgWrBW                         1.69                       # Average achieved write bandwidth in MiByte/s
system.mem_ctrls.avgRdBWSys                    760.77                       # Average system read bandwidth in MiByte/s
system.mem_ctrls.avgWrBWSys                      1.68                       # Average system write bandwidth in MiByte/s
system.mem_ctrls.peakBW                      12800.00                       # Theoretical peak bandwidth in MiByte/s
system.mem_ctrls.busUtil                         5.95                       # Data bus utilization in percentage
system.mem_ctrls.busUtilRead                     5.94                       # Data bus utilization in percentage for reads
system.mem_ctrls.busUtilWrite                    0.01                       # Data bus utilization in percentage for writes
system.mem_ctrls.avgRdQLen                       1.29                       # Average read queue length when enqueuing
system.mem_ctrls.avgWrQLen                      25.48                       # Average write queue length when enqueuing
system.mem_ctrls.readRowHits                    85183                       # Number of row buffer hits during reads
system.mem_ctrls.writeRowHits                     341                       # Number of row buffer hits during writes
system.mem_ctrls.readRowHitRate                 46.96                       # Row buffer hit rate for reads
system.mem_ctrls.writeRowHitRate                85.04                       # Row buffer hit rate for writes
system.mem_ctrls.avgGap                      83939.18                       # Average gap between requests
system.mem_ctrls.pageHitRate                    47.04                       # Row buffer hit rate, read and write combined
system.mem_ctrls_0.actEnergy                343990920                       # Energy for activate commands per rank (pJ)
system.mem_ctrls_0.preEnergy                182808945                       # Energy for precharge commands per rank (pJ)
system.mem_ctrls_0.readEnergy               647369520                       # Energy for read commands per rank (pJ)
system.mem_ctrls_0.writeEnergy                1633860                       # Energy for write commands per rank (pJ)
system.mem_ctrls_0.refreshEnergy         1205309040.000000                       # Energy for refresh commands per rank (pJ)
system.mem_ctrls_0.actBackEnergy           1566797760                       # Energy for active background per rank (pJ)
system.mem_ctrls_0.preBackEnergy             24490080                       # Energy for precharge background per rank (pJ)
system.mem_ctrls_0.actPowerDownEnergy      5260027260                       # Energy for active power-down per rank (pJ)
system.mem_ctrls_0.prePowerDownEnergy        88860960                       # Energy for precharge power-down per rank (pJ)
system.mem_ctrls_0.selfRefreshEnergy     804540.000000                       # Energy for self refresh per rank (pJ)
system.mem_ctrls_0.totalEnergy             9322092885                       # Total energy per rank (pJ)
system.mem_ctrls_0.averagePower            610.590343                       # Core power per rank (mW)
system.mem_ctrls_0.totalIdleTime          11768175750                       # Total Idle time Per DRAM Rank
system.mem_ctrls_0.memoryStateTime::IDLE      9378000                       # Time in different power states
system.mem_ctrls_0.memoryStateTime::REF     509866000                       # Time in different power states
system.mem_ctrls_0.memoryStateTime::SREF      1051000                       # Time in different power states
system.mem_ctrls_0.memoryStateTime::PRE_PDN    231539250                       # Time in different power states
system.mem_ctrls_0.memoryStateTime::ACT    2979880250                       # Time in different power states
system.mem_ctrls_0.memoryStateTime::ACT_PDN  11535629625                       # Time in different power states
system.mem_ctrls_1.actEnergy                343533960                       # Energy for activate commands per rank (pJ)
system.mem_ctrls_1.preEnergy                182562270                       # Energy for precharge commands per rank (pJ)
system.mem_ctrls_1.readEnergy               647926440                       # Energy for read commands per rank (pJ)
system.mem_ctrls_1.writeEnergy                 464580                       # Energy for write commands per rank (pJ)
system.mem_ctrls_1.refreshEnergy         1204694400.000000                       # Energy for refresh commands per rank (pJ)
system.mem_ctrls_1.actBackEnergy           1568307120                       # Energy for active background per rank (pJ)
system.mem_ctrls_1.preBackEnergy             24582720                       # Energy for precharge background per rank (pJ)
system.mem_ctrls_1.actPowerDownEnergy      5210276520                       # Energy for active power-down per rank (pJ)
system.mem_ctrls_1.prePowerDownEnergy       129702720                       # Energy for precharge power-down per rank (pJ)
system.mem_ctrls_1.selfRefreshEnergy                0                       # Energy for self refresh per rank (pJ)
system.mem_ctrls_1.totalEnergy             9312050730                       # Total energy per rank (pJ)
system.mem_ctrls_1.averagePower            609.932589                       # Core power per rank (mW)
system.mem_ctrls_1.totalIdleTime          11764202000                       # Total Idle time Per DRAM Rank
system.mem_ctrls_1.memoryStateTime::IDLE      9582000                       # Time in different power states
system.mem_ctrls_1.memoryStateTime::REF     509858000                       # Time in different power states
system.mem_ctrls_1.memoryStateTime::SREF            0                       # Time in different power states
system.mem_ctrls_1.memoryStateTime::PRE_PDN    337767750                       # Time in different power states
system.mem_ctrls_1.memoryStateTime::ACT    2983550000                       # Time in different power states
system.mem_ctrls_1.memoryStateTime::ACT_PDN  11426586375                       # Time in different power states
system.pwrStateResidencyTicks::UNDEFINED  15267344125                       # Cumulative time (in ticks) in various power states
system.cpu0.branchPred.lookups                1795487                       # Number of BP lookups
system.cpu0.branchPred.condPredicted          1795487                       # Number of conditional branches predicted
system.cpu0.branchPred.condIncorrect            76149                       # Number of conditional branches incorrect
system.cpu0.branchPred.BTBLookups             1458121                       # Number of BTB lookups
system.cpu0.branchPred.BTBHits                      0                       # Number of BTB hits
system.cpu0.branchPred.BTBCorrect                   0                       # Number of correct BTB predictions (this stat may not work properly.
system.cpu0.branchPred.BTBHitPct             0.000000                       # BTB Hit Percentage
system.cpu0.branchPred.usedRAS                  51340                       # Number of times the RAS was used to get a target.
system.cpu0.branchPred.RASInCorrect              7595                       # Number of incorrect RAS predictions.
system.cpu0.branchPred.indirectLookups        1458121                       # Number of indirect predictor lookups.
system.cpu0.branchPred.indirectHits            762659                       # Number of indirect target hits.
system.cpu0.branchPred.indirectMisses          695462                       # Number of indirect misses.
system.cpu0.branchPredindirectMispredicted        26837                       # Number of mispredicted indirect branches.
system.cpu_voltage_domain.voltage                   1                       # Voltage in Volts
system.cpu_clk_domain.clock                       500                       # Clock period in ticks
system.cpu0.dtb.walker.pwrStateResidencyTicks::UNDEFINED  15267344125                       # Cumulative time (in ticks) in various power states
system.cpu0.dtb.rdAccesses                     872788                       # TLB accesses on read requests
system.cpu0.dtb.wrAccesses                      54786                       # TLB accesses on write requests
system.cpu0.dtb.rdMisses                       181839                       # TLB misses on read requests
system.cpu0.dtb.wrMisses                         1060                       # TLB misses on write requests
system.cpu0.apic_clk_domain.clock                8000                       # Clock period in ticks
system.cpu0.interrupts.pwrStateResidencyTicks::UNDEFINED  15267344125                       # Cumulative time (in ticks) in various power states
system.cpu0.itb.walker.pwrStateResidencyTicks::UNDEFINED  15267344125                       # Cumulative time (in ticks) in various power states
system.cpu0.itb.rdAccesses                          0                       # TLB accesses on read requests
system.cpu0.itb.wrAccesses                    1472574                       # TLB accesses on write requests
system.cpu0.itb.rdMisses                            0                       # TLB misses on read requests
system.cpu0.itb.wrMisses                         6517                       # TLB misses on write requests
system.cpu0.workload.numSyscalls                    0                       # Number of system calls
system.cpu0.pwrStateResidencyTicks::ON    15267344125                       # Cumulative time (in ticks) in various power states
system.cpu0.numCycles                        30534688                       # number of cpu cycles simulated
system.cpu0.numWorkItemsStarted                     0                       # number of work items this cpu started
system.cpu0.numWorkItemsCompleted                   0                       # number of work items this cpu completed
system.cpu0.fetch.icacheStallCycles           1505174                       # Number of cycles fetch is stalled on an Icache miss
system.cpu0.fetch.Insts                       5229927                       # Number of instructions fetch has processed
system.cpu0.fetch.Branches                    1795487                       # Number of branches that fetch encountered
system.cpu0.fetch.predictedBranches            813999                       # Number of branches that fetch has predicted taken
system.cpu0.fetch.Cycles                     28819403                       # Number of cycles fetch has run and was not squashing or blocked
system.cpu0.fetch.SquashCycles                 156420                       # Number of cycles fetch has spent squashing
system.cpu0.fetch.TlbCycles                      2540                       # Number of cycles fetch has spent waiting for tlb
system.cpu0.fetch.MiscStallCycles                1449                       # Number of cycles fetch has spent waiting on interrupts, or bad addresses, or out of MSHRs
system.cpu0.fetch.PendingTrapStallCycles        57703                       # Number of stall cycles due to pending traps
system.cpu0.fetch.CacheLines                  1466057                       # Number of cache lines fetched
system.cpu0.fetch.IcacheSquashes                 9740                       # Number of outstanding Icache misses that were squashed
system.cpu0.fetch.ItlbSquashes                      7                       # Number of outstanding ITLB misses that were squashed
system.cpu0.fetch.rateDist::samples          30464479                       # Number of instructions fetched each cycle (Total)
system.cpu0.fetch.rateDist::mean             0.345772                       # Number of instructions fetched each cycle (Total)
system.cpu0.fetch.rateDist::stdev            1.476186                       # Number of instructions fetched each cycle (Total)
system.cpu0.fetch.rateDist::underflows              0      0.00%      0.00% # Number of instructions fetched each cycle (Total)
system.cpu0.fetch.rateDist::0                28430064     93.32%     93.32% # Number of instructions fetched each cycle (Total)
system.cpu0.fetch.rateDist::1                   24651      0.08%     93.40% # Number of instructions fetched each cycle (Total)
system.cpu0.fetch.rateDist::2                  731226      2.40%     95.80% # Number of instructions fetched each cycle (Total)
system.cpu0.fetch.rateDist::3                   28687      0.09%     95.90% # Number of instructions fetched each cycle (Total)
system.cpu0.fetch.rateDist::4                  143845      0.47%     96.37% # Number of instructions fetched each cycle (Total)
system.cpu0.fetch.rateDist::5                   80131      0.26%     96.63% # Number of instructions fetched each cycle (Total)
system.cpu0.fetch.rateDist::6                   98155      0.32%     96.95% # Number of instructions fetched each cycle (Total)
system.cpu0.fetch.rateDist::7                   26135      0.09%     97.04% # Number of instructions fetched each cycle (Total)
system.cpu0.fetch.rateDist::8                  901585      2.96%    100.00% # Number of instructions fetched each cycle (Total)
system.cpu0.fetch.rateDist::overflows               0      0.00%    100.00% # Number of instructions fetched each cycle (Total)
system.cpu0.fetch.rateDist::min_value               0                       # Number of instructions fetched each cycle (Total)
system.cpu0.fetch.rateDist::max_value               8                       # Number of instructions fetched each cycle (Total)
system.cpu0.fetch.rateDist::total            30464479                       # Number of instructions fetched each cycle (Total)
system.cpu0.fetch.branchRate                 0.058802                       # Number of branch fetches per cycle
system.cpu0.fetch.rate                       0.171278                       # Number of inst fetches per cycle
system.cpu0.decode.IdleCycles                  754738                       # Number of cycles decode is idle
system.cpu0.decode.BlockedCycles             28294845                       # Number of cycles decode is blocked
system.cpu0.decode.RunCycles                   976743                       # Number of cycles decode is running
system.cpu0.decode.UnblockCycles               359943                       # Number of cycles decode is unblocking
system.cpu0.decode.SquashCycles                 78210                       # Number of cycles decode is squashing
system.cpu0.decode.DecodedInsts               8722945                       # Number of instructions handled by decode
system.cpu0.rename.SquashCycles                 78210                       # Number of cycles rename is squashing
system.cpu0.rename.IdleCycles                  868606                       # Number of cycles rename is idle
system.cpu0.rename.BlockCycles               26866219                       # Number of cycles rename is blocking
system.cpu0.rename.serializeStallCycles         17894                       # count of cycles rename stalled for serializing inst
system.cpu0.rename.RunCycles                  1138586                       # Number of cycles rename is running
system.cpu0.rename.UnblockCycles              1494964                       # Number of cycles rename is unblocking
system.cpu0.rename.RenamedInsts               8369694                       # Number of instructions processed by rename
system.cpu0.rename.ROBFullEvents                79606                       # Number of times rename has blocked due to ROB full
system.cpu0.rename.IQFullEvents               1195208                       # Number of times rename has blocked due to IQ full
system.cpu0.rename.LQFullEvents                248669                       # Number of times rename has blocked due to LQ full
system.cpu0.rename.SQFullEvents                  1657                       # Number of times rename has blocked due to SQ full
system.cpu0.rename.RenamedOperands           10000714                       # Number of destination operands rename has renamed
system.cpu0.rename.RenameLookups             23265036                       # Number of register rename lookups that rename has made
system.cpu0.rename.int_rename_lookups        10977885                       # Number of integer rename lookups
system.cpu0.rename.fp_rename_lookups            43186                       # Number of floating rename lookups
system.cpu0.rename.CommittedMaps              3640460                       # Number of HB maps that are committed
system.cpu0.rename.UndoneMaps                 6360265                       # Number of HB maps that are undone due to squashing
system.cpu0.rename.serializingInsts               408                       # count of serializing insts renamed
system.cpu0.rename.tempSerializingInsts           494                       # count of temporary serializing insts renamed
system.cpu0.rename.skidInsts                  2275447                       # count of insts added to the skid buffer
system.cpu0.memDep0.insertedLoads             1503129                       # Number of loads inserted to the mem dependence unit.
system.cpu0.memDep0.insertedStores              79502                       # Number of stores inserted to the mem dependence unit.
system.cpu0.memDep0.conflictingLoads             5228                       # Number of conflicting loads.
system.cpu0.memDep0.conflictingStores            4638                       # Number of conflicting stores.
system.cpu0.iq.iqInstsAdded                   7938641                       # Number of instructions added to the IQ (excludes non-spec)
system.cpu0.iq.iqNonSpecInstsAdded               4786                       # Number of non-speculative instructions added to the IQ
system.cpu0.iq.iqInstsIssued                  5753884                       # Number of instructions issued
system.cpu0.iq.iqSquashedInstsIssued             8102                       # Number of squashed instructions issued
system.cpu0.iq.iqSquashedInstsExamined        4912389                       # Number of squashed instructions iterated over during squash; mainly for profiling
system.cpu0.iq.iqSquashedOperandsExamined     10094900                       # Number of squashed operands that are examined and possibly removed from graph
system.cpu0.iq.iqSquashedNonSpecRemoved          4786                       # Number of squashed non-spec instructions that were removed
system.cpu0.iq.issued_per_cycle::samples     30464479                       # Number of insts issued each cycle
system.cpu0.iq.issued_per_cycle::mean        0.188872                       # Number of insts issued each cycle
system.cpu0.iq.issued_per_cycle::stdev       0.790548                       # Number of insts issued each cycle
system.cpu0.iq.issued_per_cycle::underflows            0      0.00%      0.00% # Number of insts issued each cycle
system.cpu0.iq.issued_per_cycle::0           28102192     92.25%     92.25% # Number of insts issued each cycle
system.cpu0.iq.issued_per_cycle::1             940268      3.09%     95.33% # Number of insts issued each cycle
system.cpu0.iq.issued_per_cycle::2             499509      1.64%     96.97% # Number of insts issued each cycle
system.cpu0.iq.issued_per_cycle::3             338322      1.11%     98.08% # Number of insts issued each cycle
system.cpu0.iq.issued_per_cycle::4             337438      1.11%     99.19% # Number of insts issued each cycle
system.cpu0.iq.issued_per_cycle::5             106854      0.35%     99.54% # Number of insts issued each cycle
system.cpu0.iq.issued_per_cycle::6              86247      0.28%     99.82% # Number of insts issued each cycle
system.cpu0.iq.issued_per_cycle::7              31064      0.10%     99.93% # Number of insts issued each cycle
system.cpu0.iq.issued_per_cycle::8              22585      0.07%    100.00% # Number of insts issued each cycle
system.cpu0.iq.issued_per_cycle::overflows            0      0.00%    100.00% # Number of insts issued each cycle
system.cpu0.iq.issued_per_cycle::min_value            0                       # Number of insts issued each cycle
system.cpu0.iq.issued_per_cycle::max_value            8                       # Number of insts issued each cycle
system.cpu0.iq.issued_per_cycle::total       30464479                       # Number of insts issued each cycle
system.cpu0.iq.fu_full::No_OpClass                  0      0.00%      0.00% # attempts to use FU when none available
system.cpu0.iq.fu_full::IntAlu                  12889     67.14%     67.14% # attempts to use FU when none available
system.cpu0.iq.fu_full::IntMult                     0      0.00%     67.14% # attempts to use FU when none available
system.cpu0.iq.fu_full::IntDiv                      0      0.00%     67.14% # attempts to use FU when none available
system.cpu0.iq.fu_full::FloatAdd                 1222      6.37%     73.51% # attempts to use FU when none available
system.cpu0.iq.fu_full::FloatCmp                    0      0.00%     73.51% # attempts to use FU when none available
system.cpu0.iq.fu_full::FloatCvt                    0      0.00%     73.51% # attempts to use FU when none available
system.cpu0.iq.fu_full::FloatMult                   0      0.00%     73.51% # attempts to use FU when none available
system.cpu0.iq.fu_full::FloatMultAcc                0      0.00%     73.51% # attempts to use FU when none available
system.cpu0.iq.fu_full::FloatDiv                    0      0.00%     73.51% # attempts to use FU when none available
system.cpu0.iq.fu_full::FloatMisc                   0      0.00%     73.51% # attempts to use FU when none available
system.cpu0.iq.fu_full::FloatSqrt                   0      0.00%     73.51% # attempts to use FU when none available
system.cpu0.iq.fu_full::SimdAdd                     0      0.00%     73.51% # attempts to use FU when none available
system.cpu0.iq.fu_full::SimdAddAcc                  0      0.00%     73.51% # attempts to use FU when none available
system.cpu0.iq.fu_full::SimdAlu                     0      0.00%     73.51% # attempts to use FU when none available
system.cpu0.iq.fu_full::SimdCmp                     0      0.00%     73.51% # attempts to use FU when none available
system.cpu0.iq.fu_full::SimdCvt                     0      0.00%     73.51% # attempts to use FU when none available
system.cpu0.iq.fu_full::SimdMisc                    0      0.00%     73.51% # attempts to use FU when none available
system.cpu0.iq.fu_full::SimdMult                    0      0.00%     73.51% # attempts to use FU when none available
system.cpu0.iq.fu_full::SimdMultAcc                 0      0.00%     73.51% # attempts to use FU when none available
system.cpu0.iq.fu_full::SimdShift                   0      0.00%     73.51% # attempts to use FU when none available
system.cpu0.iq.fu_full::SimdShiftAcc                0      0.00%     73.51% # attempts to use FU when none available
system.cpu0.iq.fu_full::SimdSqrt                    0      0.00%     73.51% # attempts to use FU when none available
system.cpu0.iq.fu_full::SimdFloatAdd                0      0.00%     73.51% # attempts to use FU when none available
system.cpu0.iq.fu_full::SimdFloatAlu                0      0.00%     73.51% # attempts to use FU when none available
system.cpu0.iq.fu_full::SimdFloatCmp                0      0.00%     73.51% # attempts to use FU when none available
system.cpu0.iq.fu_full::SimdFloatCvt                0      0.00%     73.51% # attempts to use FU when none available
system.cpu0.iq.fu_full::SimdFloatDiv                0      0.00%     73.51% # attempts to use FU when none available
system.cpu0.iq.fu_full::SimdFloatMisc               0      0.00%     73.51% # attempts to use FU when none available
system.cpu0.iq.fu_full::SimdFloatMult               0      0.00%     73.51% # attempts to use FU when none available
system.cpu0.iq.fu_full::SimdFloatMultAcc            0      0.00%     73.51% # attempts to use FU when none available
system.cpu0.iq.fu_full::SimdFloatSqrt               0      0.00%     73.51% # attempts to use FU when none available
system.cpu0.iq.fu_full::MemRead                  4596     23.94%     97.45% # attempts to use FU when none available
system.cpu0.iq.fu_full::MemWrite                  286      1.49%     98.94% # attempts to use FU when none available
system.cpu0.iq.fu_full::FloatMemRead              170      0.89%     99.82% # attempts to use FU when none available
system.cpu0.iq.fu_full::FloatMemWrite              34      0.18%    100.00% # attempts to use FU when none available
system.cpu0.iq.fu_full::IprAccess                   0      0.00%    100.00% # attempts to use FU when none available
system.cpu0.iq.fu_full::InstPrefetch                0      0.00%    100.00% # attempts to use FU when none available
system.cpu0.iq.FU_type_0::No_OpClass            20404      0.35%      0.35% # Type of FU issued
system.cpu0.iq.FU_type_0::IntAlu              4730810     82.22%     82.57% # Type of FU issued
system.cpu0.iq.FU_type_0::IntMult                 988      0.02%     82.59% # Type of FU issued
system.cpu0.iq.FU_type_0::IntDiv                11005      0.19%     82.78% # Type of FU issued
system.cpu0.iq.FU_type_0::FloatAdd              15677      0.27%     83.05% # Type of FU issued
system.cpu0.iq.FU_type_0::FloatCmp                  0      0.00%     83.05% # Type of FU issued
system.cpu0.iq.FU_type_0::FloatCvt                  0      0.00%     83.05% # Type of FU issued
system.cpu0.iq.FU_type_0::FloatMult                 0      0.00%     83.05% # Type of FU issued
system.cpu0.iq.FU_type_0::FloatMultAcc              0      0.00%     83.05% # Type of FU issued
system.cpu0.iq.FU_type_0::FloatDiv                  0      0.00%     83.05% # Type of FU issued
system.cpu0.iq.FU_type_0::FloatMisc                 0      0.00%     83.05% # Type of FU issued
system.cpu0.iq.FU_type_0::FloatSqrt                 0      0.00%     83.05% # Type of FU issued
system.cpu0.iq.FU_type_0::SimdAdd                   0      0.00%     83.05% # Type of FU issued
system.cpu0.iq.FU_type_0::SimdAddAcc                0      0.00%     83.05% # Type of FU issued
system.cpu0.iq.FU_type_0::SimdAlu                   0      0.00%     83.05% # Type of FU issued
system.cpu0.iq.FU_type_0::SimdCmp                   0      0.00%     83.05% # Type of FU issued
system.cpu0.iq.FU_type_0::SimdCvt                   0      0.00%     83.05% # Type of FU issued
system.cpu0.iq.FU_type_0::SimdMisc                  0      0.00%     83.05% # Type of FU issued
system.cpu0.iq.FU_type_0::SimdMult                  0      0.00%     83.05% # Type of FU issued
system.cpu0.iq.FU_type_0::SimdMultAcc               0      0.00%     83.05% # Type of FU issued
system.cpu0.iq.FU_type_0::SimdShift                 0      0.00%     83.05% # Type of FU issued
system.cpu0.iq.FU_type_0::SimdShiftAcc              0      0.00%     83.05% # Type of FU issued
system.cpu0.iq.FU_type_0::SimdSqrt                  0      0.00%     83.05% # Type of FU issued
system.cpu0.iq.FU_type_0::SimdFloatAdd              0      0.00%     83.05% # Type of FU issued
system.cpu0.iq.FU_type_0::SimdFloatAlu              0      0.00%     83.05% # Type of FU issued
system.cpu0.iq.FU_type_0::SimdFloatCmp              0      0.00%     83.05% # Type of FU issued
system.cpu0.iq.FU_type_0::SimdFloatCvt              0      0.00%     83.05% # Type of FU issued
system.cpu0.iq.FU_type_0::SimdFloatDiv              0      0.00%     83.05% # Type of FU issued
system.cpu0.iq.FU_type_0::SimdFloatMisc             0      0.00%     83.05% # Type of FU issued
system.cpu0.iq.FU_type_0::SimdFloatMult             0      0.00%     83.05% # Type of FU issued
system.cpu0.iq.FU_type_0::SimdFloatMultAcc            0      0.00%     83.05% # Type of FU issued
system.cpu0.iq.FU_type_0::SimdFloatSqrt             0      0.00%     83.05% # Type of FU issued
system.cpu0.iq.FU_type_0::MemRead              912838     15.86%     98.92% # Type of FU issued
system.cpu0.iq.FU_type_0::MemWrite              58851      1.02%     99.94% # Type of FU issued
system.cpu0.iq.FU_type_0::FloatMemRead           3178      0.06%    100.00% # Type of FU issued
system.cpu0.iq.FU_type_0::FloatMemWrite           133      0.00%    100.00% # Type of FU issued
system.cpu0.iq.FU_type_0::IprAccess                 0      0.00%    100.00% # Type of FU issued
system.cpu0.iq.FU_type_0::InstPrefetch              0      0.00%    100.00% # Type of FU issued
system.cpu0.iq.FU_type_0::total               5753884                       # Type of FU issued
system.cpu0.iq.rate                          0.188438                       # Inst issue rate
system.cpu0.iq.fu_busy_cnt                      19197                       # FU busy when requested
system.cpu0.iq.fu_busy_rate                  0.003336                       # FU busy rate (busy events/executed inst)
system.cpu0.iq.int_inst_queue_reads          41959879                       # Number of integer instruction queue reads
system.cpu0.iq.int_inst_queue_writes         12818003                       # Number of integer instruction queue writes
system.cpu0.iq.int_inst_queue_wakeup_accesses      5513081                       # Number of integer instruction queue wakeup accesses
system.cpu0.iq.fp_inst_queue_reads              39664                       # Number of floating instruction queue reads
system.cpu0.iq.fp_inst_queue_writes             37818                       # Number of floating instruction queue writes
system.cpu0.iq.fp_inst_queue_wakeup_accesses        17137                       # Number of floating instruction queue wakeup accesses
system.cpu0.iq.vec_inst_queue_reads                 0                       # Number of vector instruction queue reads
system.cpu0.iq.vec_inst_queue_writes                0                       # Number of vector instruction queue writes
system.cpu0.iq.vec_inst_queue_wakeup_accesses            0                       # Number of vector instruction queue wakeup accesses
system.cpu0.iq.int_alu_accesses               5732256                       # Number of integer alu accesses
system.cpu0.iq.fp_alu_accesses                  20421                       # Number of floating point alu accesses
system.cpu0.iq.vec_alu_accesses                     0                       # Number of vector alu accesses
system.cpu0.iew.lsq.thread0.forwLoads            4792                       # Number of loads that had data forwarded from stores
system.cpu0.iew.lsq.thread0.invAddrLoads            0                       # Number of loads ignored due to an invalid address
system.cpu0.iew.lsq.thread0.squashedLoads       933617                       # Number of loads squashed
system.cpu0.iew.lsq.thread0.ignoredResponses          156                       # Number of memory responses ignored because the instruction is squashed
system.cpu0.iew.lsq.thread0.memOrderViolation            5                       # Number of memory ordering violations
system.cpu0.iew.lsq.thread0.squashedStores        48388                       # Number of stores squashed
system.cpu0.iew.lsq.thread0.invAddrSwpfs            0                       # Number of software prefetches ignored due to an invalid address
system.cpu0.iew.lsq.thread0.blockedLoads            0                       # Number of blocked loads due to partial load-store forwarding
system.cpu0.iew.lsq.thread0.rescheduledLoads           31                       # Number of loads that were rescheduled
system.cpu0.iew.lsq.thread0.cacheBlocked         1741                       # Number of times an access to memory failed due to the cache being blocked
system.cpu0.iew.iewIdleCycles                       0                       # Number of cycles IEW is idle
system.cpu0.iew.iewSquashCycles                 78210                       # Number of cycles IEW is squashing
system.cpu0.iew.iewBlockCycles               24825605                       # Number of cycles IEW is blocking
system.cpu0.iew.iewUnblockCycles               291441                       # Number of cycles IEW is unblocking
system.cpu0.iew.iewDispatchedInsts            7943427                       # Number of instructions dispatched to IQ
system.cpu0.iew.iewDispSquashedInsts             5286                       # Number of squashed instructions skipped by dispatch
system.cpu0.iew.iewDispLoadInsts              1503129                       # Number of dispatched load instructions
system.cpu0.iew.iewDispStoreInsts               79502                       # Number of dispatched store instructions
system.cpu0.iew.iewDispNonSpecInsts              1811                       # Number of dispatched non-speculative instructions
system.cpu0.iew.iewIQFullEvents                 20517                       # Number of times the IQ has become full, causing a stall
system.cpu0.iew.iewLSQFullEvents                60512                       # Number of times the LSQ has become full, causing a stall
system.cpu0.iew.memOrderViolationEvents             5                       # Number of memory order violations
system.cpu0.iew.predictedTakenIncorrect         39717                       # Number of branches that were predicted taken incorrectly
system.cpu0.iew.predictedNotTakenIncorrect        46587                       # Number of branches that were predicted not taken incorrectly
system.cpu0.iew.branchMispredicts               86304                       # Number of branch mispredicts detected at execute
system.cpu0.iew.iewExecutedInsts              5645625                       # Number of executed instructions
system.cpu0.iew.iewExecLoadInsts               872509                       # Number of load instructions executed
system.cpu0.iew.iewExecSquashedInsts           108256                       # Number of squashed instructions skipped in execute
system.cpu0.iew.exec_swp                            0                       # number of swp insts executed
system.cpu0.iew.exec_nop                            0                       # number of nop insts executed
system.cpu0.iew.exec_refs                      927279                       # number of memory reference insts executed
system.cpu0.iew.exec_branches                  689830                       # Number of branches executed
system.cpu0.iew.exec_stores                     54770                       # Number of stores executed
system.cpu0.iew.exec_rate                    0.184892                       # Inst execution rate
system.cpu0.iew.wb_sent                       5549446                       # cumulative count of insts sent to commit
system.cpu0.iew.wb_count                      5530218                       # cumulative count of insts written-back
system.cpu0.iew.wb_producers                  4067291                       # num instructions producing a value
system.cpu0.iew.wb_consumers                  6499698                       # num instructions consuming a value
system.cpu0.iew.wb_rate                      0.181113                       # insts written-back per cycle
system.cpu0.iew.wb_fanout                    0.625766                       # average fanout of values written-back
system.cpu0.commit.commitSquashedInsts        4913045                       # The number of squashed insts skipped by commit
system.cpu0.commit.branchMispredicts            78206                       # The number of times a branch was mispredicted
system.cpu0.commit.committed_per_cycle::samples     29766594                       # Number of insts commited each cycle
system.cpu0.commit.committed_per_cycle::mean     0.101827                       # Number of insts commited each cycle
system.cpu0.commit.committed_per_cycle::stdev     0.587769                       # Number of insts commited each cycle
system.cpu0.commit.committed_per_cycle::underflows            0      0.00%      0.00% # Number of insts commited each cycle
system.cpu0.commit.committed_per_cycle::0     28452355     95.58%     95.58% # Number of insts commited each cycle
system.cpu0.commit.committed_per_cycle::1       604090      2.03%     97.61% # Number of insts commited each cycle
system.cpu0.commit.committed_per_cycle::2       147130      0.49%     98.11% # Number of insts commited each cycle
system.cpu0.commit.committed_per_cycle::3       395337      1.33%     99.44% # Number of insts commited each cycle
system.cpu0.commit.committed_per_cycle::4        66056      0.22%     99.66% # Number of insts commited each cycle
system.cpu0.commit.committed_per_cycle::5        37533      0.13%     99.78% # Number of insts commited each cycle
system.cpu0.commit.committed_per_cycle::6         6748      0.02%     99.81% # Number of insts commited each cycle
system.cpu0.commit.committed_per_cycle::7         4447      0.01%     99.82% # Number of insts commited each cycle
system.cpu0.commit.committed_per_cycle::8        52898      0.18%    100.00% # Number of insts commited each cycle
system.cpu0.commit.committed_per_cycle::overflows            0      0.00%    100.00% # Number of insts commited each cycle
system.cpu0.commit.committed_per_cycle::min_value            0                       # Number of insts commited each cycle
system.cpu0.commit.committed_per_cycle::max_value            8                       # Number of insts commited each cycle
system.cpu0.commit.committed_per_cycle::total     29766594                       # Number of insts commited each cycle
system.cpu0.commit.committedInsts             1517443                       # Number of instructions committed
system.cpu0.commit.committedOps               3031051                       # Number of ops (including micro ops) committed
system.cpu0.commit.swp_count                        0                       # Number of s/w prefetches committed
system.cpu0.commit.refs                        600628                       # Number of memory references committed
system.cpu0.commit.loads                       569514                       # Number of loads committed
system.cpu0.commit.membars                          0                       # Number of memory barriers committed
system.cpu0.commit.branches                    544829                       # Number of branches committed
system.cpu0.commit.vec_insts                        0                       # Number of committed Vector instructions.
system.cpu0.commit.fp_insts                     12536                       # Number of committed floating point instructions.
system.cpu0.commit.int_insts                  3018386                       # Number of committed integer instructions.
system.cpu0.commit.function_calls                5500                       # Number of function calls committed.
system.cpu0.commit.op_class_0::No_OpClass         3793      0.13%      0.13% # Class of committed instruction
system.cpu0.commit.op_class_0::IntAlu         2406474     79.39%     79.52% # Class of committed instruction
system.cpu0.commit.op_class_0::IntMult            220      0.01%     79.53% # Class of committed instruction
system.cpu0.commit.op_class_0::IntDiv            9232      0.30%     79.83% # Class of committed instruction
system.cpu0.commit.op_class_0::FloatAdd         10704      0.35%     80.18% # Class of committed instruction
system.cpu0.commit.op_class_0::FloatCmp             0      0.00%     80.18% # Class of committed instruction
system.cpu0.commit.op_class_0::FloatCvt             0      0.00%     80.18% # Class of committed instruction
system.cpu0.commit.op_class_0::FloatMult            0      0.00%     80.18% # Class of committed instruction
system.cpu0.commit.op_class_0::FloatMultAcc            0      0.00%     80.18% # Class of committed instruction
system.cpu0.commit.op_class_0::FloatDiv             0      0.00%     80.18% # Class of committed instruction
system.cpu0.commit.op_class_0::FloatMisc            0      0.00%     80.18% # Class of committed instruction
system.cpu0.commit.op_class_0::FloatSqrt            0      0.00%     80.18% # Class of committed instruction
system.cpu0.commit.op_class_0::SimdAdd              0      0.00%     80.18% # Class of committed instruction
system.cpu0.commit.op_class_0::SimdAddAcc            0      0.00%     80.18% # Class of committed instruction
system.cpu0.commit.op_class_0::SimdAlu              0      0.00%     80.18% # Class of committed instruction
system.cpu0.commit.op_class_0::SimdCmp              0      0.00%     80.18% # Class of committed instruction
system.cpu0.commit.op_class_0::SimdCvt              0      0.00%     80.18% # Class of committed instruction
system.cpu0.commit.op_class_0::SimdMisc             0      0.00%     80.18% # Class of committed instruction
system.cpu0.commit.op_class_0::SimdMult             0      0.00%     80.18% # Class of committed instruction
system.cpu0.commit.op_class_0::SimdMultAcc            0      0.00%     80.18% # Class of committed instruction
system.cpu0.commit.op_class_0::SimdShift            0      0.00%     80.18% # Class of committed instruction
system.cpu0.commit.op_class_0::SimdShiftAcc            0      0.00%     80.18% # Class of committed instruction
system.cpu0.commit.op_class_0::SimdSqrt             0      0.00%     80.18% # Class of committed instruction
system.cpu0.commit.op_class_0::SimdFloatAdd            0      0.00%     80.18% # Class of committed instruction
system.cpu0.commit.op_class_0::SimdFloatAlu            0      0.00%     80.18% # Class of committed instruction
system.cpu0.commit.op_class_0::SimdFloatCmp            0      0.00%     80.18% # Class of committed instruction
system.cpu0.commit.op_class_0::SimdFloatCvt            0      0.00%     80.18% # Class of committed instruction
system.cpu0.commit.op_class_0::SimdFloatDiv            0      0.00%     80.18% # Class of committed instruction
system.cpu0.commit.op_class_0::SimdFloatMisc            0      0.00%     80.18% # Class of committed instruction
system.cpu0.commit.op_class_0::SimdFloatMult            0      0.00%     80.18% # Class of committed instruction
system.cpu0.commit.op_class_0::SimdFloatMultAcc            0      0.00%     80.18% # Class of committed instruction
system.cpu0.commit.op_class_0::SimdFloatSqrt            0      0.00%     80.18% # Class of committed instruction
system.cpu0.commit.op_class_0::MemRead         567682     18.73%     98.91% # Class of committed instruction
system.cpu0.commit.op_class_0::MemWrite         31114      1.03%     99.94% # Class of committed instruction
system.cpu0.commit.op_class_0::FloatMemRead         1832      0.06%    100.00% # Class of committed instruction
system.cpu0.commit.op_class_0::FloatMemWrite            0      0.00%    100.00% # Class of committed instruction
system.cpu0.commit.op_class_0::IprAccess            0      0.00%    100.00% # Class of committed instruction
system.cpu0.commit.op_class_0::InstPrefetch            0      0.00%    100.00% # Class of committed instruction
system.cpu0.commit.op_class_0::total          3031051                       # Class of committed instruction
system.cpu0.commit.bw_lim_events                52898                       # number cycles where commit BW limit reached
system.cpu0.rob.rob_reads                    37657792                       # The number of ROB reads
system.cpu0.rob.rob_writes                   16588001                       # The number of ROB writes
system.cpu0.timesIdled                            549                       # Number of times that the entire CPU went into an idle state and unscheduled itself
system.cpu0.idleCycles                          70209                       # Total number of cycles that the CPU has spent unscheduled due to idling
system.cpu0.committedInsts                    1517443                       # Number of Instructions Simulated
system.cpu0.committedOps                      3031051                       # Number of Ops (including micro ops) Simulated
system.cpu0.cpi                             20.122461                       # CPI: Cycles Per Instruction
system.cpu0.cpi_total                       20.122461                       # CPI: Total CPI of All Threads
system.cpu0.ipc                              0.049696                       # IPC: Instructions Per Cycle
system.cpu0.ipc_total                        0.049696                       # IPC: Total IPC of All Threads
system.cpu0.int_regfile_reads                 5708630                       # number of integer regfile reads
system.cpu0.int_regfile_writes                4792750                       # number of integer regfile writes
system.cpu0.fp_regfile_reads                    30427                       # number of floating regfile reads
system.cpu0.fp_regfile_writes                   15122                       # number of floating regfile writes
system.cpu0.cc_regfile_reads                  3638013                       # number of cc regfile reads
system.cpu0.cc_regfile_writes                 1570450                       # number of cc regfile writes
system.cpu0.misc_regfile_reads                2972213                       # number of misc regfile reads
system.cpu0.dcache.tags.pwrStateResidencyTicks::UNDEFINED  15267344125                       # Cumulative time (in ticks) in various power states
system.cpu0.dcache.tags.replacements           299552                       # number of replacements
system.cpu0.dcache.tags.tagsinuse                1024                       # Cycle average of tags in use
system.cpu0.dcache.tags.total_refs             372506                       # Total number of references to valid blocks.
system.cpu0.dcache.tags.sampled_refs           299552                       # Sample count of references to valid blocks.
system.cpu0.dcache.tags.avg_refs             1.243544                       # Average number of references to valid blocks.
system.cpu0.dcache.tags.warmup_cycle                0                       # Cycle when the warmup percentage was hit.
system.cpu0.dcache.tags.occ_blocks::cpu0.data         1024                       # Average occupied blocks per requestor
system.cpu0.dcache.tags.occ_percent::cpu0.data            1                       # Average percentage of cache occupancy
system.cpu0.dcache.tags.occ_percent::total            1                       # Average percentage of cache occupancy
system.cpu0.dcache.tags.occ_task_id_blocks::1024         1024                       # Occupied blocks per task id
system.cpu0.dcache.tags.age_task_id_blocks_1024::0          307                       # Occupied blocks per task id
system.cpu0.dcache.tags.age_task_id_blocks_1024::1          717                       # Occupied blocks per task id
system.cpu0.dcache.tags.occ_task_id_percent::1024            1                       # Percentage of cache occupancy per task id
system.cpu0.dcache.tags.tag_accesses          3876720                       # Number of tag accesses
system.cpu0.dcache.tags.data_accesses         3876720                       # Number of data accesses
system.cpu0.dcache.pwrStateResidencyTicks::UNDEFINED  15267344125                       # Cumulative time (in ticks) in various power states
system.cpu0.dcache.ReadReq_hits::cpu0.data       339575                       # number of ReadReq hits
system.cpu0.dcache.ReadReq_hits::total         339575                       # number of ReadReq hits
system.cpu0.dcache.WriteReq_hits::cpu0.data        29934                       # number of WriteReq hits
system.cpu0.dcache.WriteReq_hits::total         29934                       # number of WriteReq hits
system.cpu0.dcache.demand_hits::cpu0.data       369509                       # number of demand (read+write) hits
system.cpu0.dcache.demand_hits::total          369509                       # number of demand (read+write) hits
system.cpu0.dcache.overall_hits::cpu0.data       369509                       # number of overall hits
system.cpu0.dcache.overall_hits::total         369509                       # number of overall hits
system.cpu0.dcache.ReadReq_misses::cpu0.data       523603                       # number of ReadReq misses
system.cpu0.dcache.ReadReq_misses::total       523603                       # number of ReadReq misses
system.cpu0.dcache.WriteReq_misses::cpu0.data         1180                       # number of WriteReq misses
system.cpu0.dcache.WriteReq_misses::total         1180                       # number of WriteReq misses
system.cpu0.dcache.demand_misses::cpu0.data       524783                       # number of demand (read+write) misses
system.cpu0.dcache.demand_misses::total        524783                       # number of demand (read+write) misses
system.cpu0.dcache.overall_misses::cpu0.data       524783                       # number of overall misses
system.cpu0.dcache.overall_misses::total       524783                       # number of overall misses
system.cpu0.dcache.ReadReq_miss_latency::cpu0.data  34176105500                       # number of ReadReq miss cycles
system.cpu0.dcache.ReadReq_miss_latency::total  34176105500                       # number of ReadReq miss cycles
system.cpu0.dcache.WriteReq_miss_latency::cpu0.data     41902999                       # number of WriteReq miss cycles
system.cpu0.dcache.WriteReq_miss_latency::total     41902999                       # number of WriteReq miss cycles
system.cpu0.dcache.demand_miss_latency::cpu0.data  34218008499                       # number of demand (read+write) miss cycles
system.cpu0.dcache.demand_miss_latency::total  34218008499                       # number of demand (read+write) miss cycles
system.cpu0.dcache.overall_miss_latency::cpu0.data  34218008499                       # number of overall miss cycles
system.cpu0.dcache.overall_miss_latency::total  34218008499                       # number of overall miss cycles
system.cpu0.dcache.ReadReq_accesses::cpu0.data       863178                       # number of ReadReq accesses(hits+misses)
system.cpu0.dcache.ReadReq_accesses::total       863178                       # number of ReadReq accesses(hits+misses)
system.cpu0.dcache.WriteReq_accesses::cpu0.data        31114                       # number of WriteReq accesses(hits+misses)
system.cpu0.dcache.WriteReq_accesses::total        31114                       # number of WriteReq accesses(hits+misses)
system.cpu0.dcache.demand_accesses::cpu0.data       894292                       # number of demand (read+write) accesses
system.cpu0.dcache.demand_accesses::total       894292                       # number of demand (read+write) accesses
system.cpu0.dcache.overall_accesses::cpu0.data       894292                       # number of overall (read+write) accesses
system.cpu0.dcache.overall_accesses::total       894292                       # number of overall (read+write) accesses
system.cpu0.dcache.ReadReq_miss_rate::cpu0.data     0.606599                       # miss rate for ReadReq accesses
system.cpu0.dcache.ReadReq_miss_rate::total     0.606599                       # miss rate for ReadReq accesses
system.cpu0.dcache.WriteReq_miss_rate::cpu0.data     0.037925                       # miss rate for WriteReq accesses
system.cpu0.dcache.WriteReq_miss_rate::total     0.037925                       # miss rate for WriteReq accesses
system.cpu0.dcache.demand_miss_rate::cpu0.data     0.586814                       # miss rate for demand accesses
system.cpu0.dcache.demand_miss_rate::total     0.586814                       # miss rate for demand accesses
system.cpu0.dcache.overall_miss_rate::cpu0.data     0.586814                       # miss rate for overall accesses
system.cpu0.dcache.overall_miss_rate::total     0.586814                       # miss rate for overall accesses
system.cpu0.dcache.ReadReq_avg_miss_latency::cpu0.data 65271.026904                       # average ReadReq miss latency
system.cpu0.dcache.ReadReq_avg_miss_latency::total 65271.026904                       # average ReadReq miss latency
system.cpu0.dcache.WriteReq_avg_miss_latency::cpu0.data 35511.016102                       # average WriteReq miss latency
system.cpu0.dcache.WriteReq_avg_miss_latency::total 35511.016102                       # average WriteReq miss latency
[...]
system.l2.ReadSharedReq_hits::cpu0.data        117186                       # number of ReadSharedReq hits
system.l2.ReadSharedReq_hits::total            117186                       # number of ReadSharedReq hits
system.l2.demand_hits::cpu0.data               118067                       # number of demand (read+write) hits
system.l2.demand_hits::total                   118067                       # number of demand (read+write) hits
system.l2.overall_hits::cpu0.data              118067                       # number of overall hits
system.l2.overall_hits::total                  118067                       # number of overall hits
system.l2.ReadExReq_misses::cpu0.data             290                       # number of ReadExReq misses
system.l2.ReadExReq_misses::total                 290                       # number of ReadExReq misses
system.l2.ReadSharedReq_misses::cpu0.data       181194                       # number of ReadSharedReq misses
system.l2.ReadSharedReq_misses::total          181194                       # number of ReadSharedReq misses
system.l2.demand_misses::cpu0.data             181484                       # number of demand (read+write) misses
system.l2.demand_misses::total                 181484                       # number of demand (read+write) misses
system.l2.overall_misses::cpu0.data            181484                       # number of overall misses
system.l2.overall_misses::total                181484                       # number of overall misses
system.l2.ReadExReq_miss_latency::cpu0.data     29020500                       # number of ReadExReq miss cycles
system.l2.ReadExReq_miss_latency::total      29020500                       # number of ReadExReq miss cycles
system.l2.ReadSharedReq_miss_latency::cpu0.data  17294662000                       # number of ReadSharedReq miss cycles
system.l2.ReadSharedReq_miss_latency::total  17294662000                       # number of ReadSharedReq miss cycles
system.l2.demand_miss_latency::cpu0.data  17323682500                       # number of demand (read+write) miss cycles
system.l2.demand_miss_latency::total      17323682500                       # number of demand (read+write) miss cycles
system.l2.overall_miss_latency::cpu0.data  17323682500                       # number of overall miss cycles
system.l2.overall_miss_latency::total     17323682500                       # number of overall miss cycles
system.l2.WritebackDirty_accesses::writebacks         3163                       # number of WritebackDirty accesses(hits+misses)
system.l2.WritebackDirty_accesses::total         3163                       # number of WritebackDirty accesses(hits+misses)
system.l2.ReadExReq_accesses::cpu0.data          1171                       # number of ReadExReq accesses(hits+misses)
system.l2.ReadExReq_accesses::total              1171                       # number of ReadExReq accesses(hits+misses)
system.l2.ReadSharedReq_accesses::cpu0.data       298380                       # number of ReadSharedReq accesses(hits+misses)
system.l2.ReadSharedReq_accesses::total        298380                       # number of ReadSharedReq accesses(hits+misses)
system.l2.demand_accesses::cpu0.data           299551                       # number of demand (read+write) accesses
system.l2.demand_accesses::total               299551                       # number of demand (read+write) accesses
system.l2.overall_accesses::cpu0.data          299551                       # number of overall (read+write) accesses
system.l2.overall_accesses::total              299551                       # number of overall (read+write) accesses
system.l2.ReadExReq_miss_rate::cpu0.data     0.247652                       # miss rate for ReadExReq accesses
system.l2.ReadExReq_miss_rate::total         0.247652                       # miss rate for ReadExReq accesses
system.l2.ReadSharedReq_miss_rate::cpu0.data     0.607259                       # miss rate for ReadSharedReq accesses
system.l2.ReadSharedReq_miss_rate::total     0.607259                       # miss rate for ReadSharedReq accesses
system.l2.demand_miss_rate::cpu0.data        0.605853                       # miss rate for demand accesses
system.l2.demand_miss_rate::total            0.605853                       # miss rate for demand accesses
system.l2.overall_miss_rate::cpu0.data       0.605853                       # miss rate for overall accesses
system.l2.overall_miss_rate::total           0.605853                       # miss rate for overall accesses
system.l2.ReadExReq_avg_miss_latency::cpu0.data 100070.689655                       # average ReadExReq miss latency
system.l2.ReadExReq_avg_miss_latency::total 100070.689655                       # average ReadExReq miss latency
system.l2.ReadSharedReq_avg_miss_latency::cpu0.data 95448.315066                       # average ReadSharedReq miss latency
system.l2.ReadSharedReq_avg_miss_latency::total 95448.315066                       # average ReadSharedReq miss latency
system.l2.demand_avg_miss_latency::cpu0.data 95455.701329                       # average overall miss latency
system.l2.demand_avg_miss_latency::total 95455.701329                       # average overall miss latency
system.l2.overall_avg_miss_latency::cpu0.data 95455.701329                       # average overall miss latency
system.l2.overall_avg_miss_latency::total 95455.701329                       # average overall miss latency
system.l2.blocked_cycles::no_mshrs                  0                       # number of cycles access was blocked
system.l2.blocked_cycles::no_targets                0                       # number of cycles access was blocked
system.l2.blocked::no_mshrs                         0                       # number of cycles access was blocked
system.l2.blocked::no_targets                       0                       # number of cycles access was blocked
system.l2.avg_blocked_cycles::no_mshrs            nan                       # average number of cycles each access was blocked
system.l2.avg_blocked_cycles::no_targets          nan                       # average number of cycles each access was blocked
system.l2.writebacks::writebacks                  401                       # number of writebacks
system.l2.writebacks::total                       401                       # number of writebacks
system.l2.ReadExReq_mshr_misses::cpu0.data          290                       # number of ReadExReq MSHR misses
system.l2.ReadExReq_mshr_misses::total            290                       # number of ReadExReq MSHR misses
system.l2.ReadSharedReq_mshr_misses::cpu0.data       181194                       # number of ReadSharedReq MSHR misses
system.l2.ReadSharedReq_mshr_misses::total       181194                       # number of ReadSharedReq MSHR misses
system.l2.demand_mshr_misses::cpu0.data        181484                       # number of demand (read+write) MSHR misses
system.l2.demand_mshr_misses::total            181484                       # number of demand (read+write) MSHR misses
system.l2.overall_mshr_misses::cpu0.data       181484                       # number of overall MSHR misses
system.l2.overall_mshr_misses::total           181484                       # number of overall MSHR misses
system.l2.ReadExReq_mshr_miss_latency::cpu0.data     26120500                       # number of ReadExReq MSHR miss cycles
system.l2.ReadExReq_mshr_miss_latency::total     26120500                       # number of ReadExReq MSHR miss cycles
system.l2.ReadSharedReq_mshr_miss_latency::cpu0.data  15482712000                       # number of ReadSharedReq MSHR miss cycles
system.l2.ReadSharedReq_mshr_miss_latency::total  15482712000                       # number of ReadSharedReq MSHR miss cycles
system.l2.demand_mshr_miss_latency::cpu0.data  15508832500                       # number of demand (read+write) MSHR miss cycles
system.l2.demand_mshr_miss_latency::total  15508832500                       # number of demand (read+write) MSHR miss cycles
system.l2.overall_mshr_miss_latency::cpu0.data  15508832500                       # number of overall MSHR miss cycles
system.l2.overall_mshr_miss_latency::total  15508832500                       # number of overall MSHR miss cycles
system.l2.ReadExReq_mshr_miss_rate::cpu0.data     0.247652                       # mshr miss rate for ReadExReq accesses
system.l2.ReadExReq_mshr_miss_rate::total     0.247652                       # mshr miss rate for ReadExReq accesses
system.l2.ReadSharedReq_mshr_miss_rate::cpu0.data     0.607259                       # mshr miss rate for ReadSharedReq accesses
system.l2.ReadSharedReq_mshr_miss_rate::total     0.607259                       # mshr miss rate for ReadSharedReq accesses
system.l2.demand_mshr_miss_rate::cpu0.data     0.605853                       # mshr miss rate for demand accesses
system.l2.demand_mshr_miss_rate::total       0.605853                       # mshr miss rate for demand accesses
system.l2.overall_mshr_miss_rate::cpu0.data     0.605853                       # mshr miss rate for overall accesses
system.l2.overall_mshr_miss_rate::total      0.605853                       # mshr miss rate for overall accesses
system.l2.ReadExReq_avg_mshr_miss_latency::cpu0.data 90070.689655                       # average ReadExReq mshr miss latency
system.l2.ReadExReq_avg_mshr_miss_latency::total 90070.689655                       # average ReadExReq mshr miss latency
system.l2.ReadSharedReq_avg_mshr_miss_latency::cpu0.data 85448.259876                       # average ReadSharedReq mshr miss latency
system.l2.ReadSharedReq_avg_mshr_miss_latency::total 85448.259876                       # average ReadSharedReq mshr miss latency
system.l2.demand_avg_mshr_miss_latency::cpu0.data 85455.646228                       # average overall mshr miss latency
system.l2.demand_avg_mshr_miss_latency::total 85455.646228                       # average overall mshr miss latency
system.l2.overall_avg_mshr_miss_latency::cpu0.data 85455.646228                       # average overall mshr miss latency
system.l2.overall_avg_mshr_miss_latency::total 85455.646228                       # average overall mshr miss latency
system.membus.snoop_filter.tot_requests        362967                       # Total number of requests made to the snoop filter.
system.membus.snoop_filter.hit_single_requests       181486                       # Number of requests hitting in the snoop filter with a single holder of the requested data.
system.membus.snoop_filter.hit_multi_requests            0                       # Number of requests hitting in the snoop filter with multiple (>1) holders of the requested data.
system.membus.snoop_filter.tot_snoops               0                       # Total number of snoops made to the snoop filter.
system.membus.snoop_filter.hit_single_snoops            0                       # Number of snoops hitting in the snoop filter with a single holder of the requested data.
system.membus.snoop_filter.hit_multi_snoops            0                       # Number of snoops hitting in the snoop filter with multiple (>1) holders of the requested data.
system.membus.pwrStateResidencyTicks::UNDEFINED  15267344125                       # Cumulative time (in ticks) in various power states
system.membus.trans_dist::ReadResp             181195                       # Transaction distribution
system.membus.trans_dist::WritebackDirty          401                       # Transaction distribution
system.membus.trans_dist::CleanEvict           181082                       # Transaction distribution
system.membus.trans_dist::ReadExReq               290                       # Transaction distribution
system.membus.trans_dist::ReadExResp              290                       # Transaction distribution
system.membus.trans_dist::ReadSharedReq        181194                       # Transaction distribution
system.membus.pkt_count_system.l2.mem_side::system.mem_ctrls.port       544452                       # Packet count per connected master and slave (bytes)
system.membus.pkt_count_system.l2.mem_side::total       544452                       # Packet count per connected master and slave (bytes)
system.membus.pkt_count::total                 544452                       # Packet count per connected master and slave (bytes)
system.membus.pkt_size_system.l2.mem_side::system.mem_ctrls.port     11640704                       # Cumulative packet size per connected master and slave (bytes)
system.membus.pkt_size_system.l2.mem_side::total     11640704                       # Cumulative packet size per connected master and slave (bytes)
system.membus.pkt_size::total                11640704                       # Cumulative packet size per connected master and slave (bytes)
system.membus.snoops                                0                       # Total snoops (count)
system.membus.snoopTraffic                          0                       # Total snoop traffic (bytes)
system.membus.snoop_fanout::samples            181484                       # Request fanout histogram
system.membus.snoop_fanout::mean                    0                       # Request fanout histogram
system.membus.snoop_fanout::stdev                   0                       # Request fanout histogram
system.membus.snoop_fanout::underflows              0      0.00%      0.00% # Request fanout histogram
system.membus.snoop_fanout::0                  181484    100.00%    100.00% # Request fanout histogram
system.membus.snoop_fanout::1                       0      0.00%    100.00% # Request fanout histogram
system.membus.snoop_fanout::overflows               0      0.00%    100.00% # Request fanout histogram
system.membus.snoop_fanout::min_value               0                       # Request fanout histogram
system.membus.snoop_fanout::max_value               0                       # Request fanout histogram
system.membus.snoop_fanout::total              181484                       # Request fanout histogram
system.membus.reqLayer8.occupancy           426806000                       # Layer occupancy (ticks)
system.membus.reqLayer8.utilization               2.8                       # Layer utilization (%)
system.membus.respLayer1.occupancy          983904500                       # Layer occupancy (ticks)
system.membus.respLayer1.utilization              6.4                       # Layer utilization (%)
system.tol2bus.snoop_filter.tot_requests       599103                       # Total number of requests made to the snoop filter.
system.tol2bus.snoop_filter.hit_single_requests       299550                       # Number of requests hitting in the snoop filter with a single holder of the requested data.
system.tol2bus.snoop_filter.hit_multi_requests          404                       # Number of requests hitting in the snoop filter with multiple (>1) holders of the requested data.
system.tol2bus.snoop_filter.tot_snoops              2                       # Total number of snoops made to the snoop filter.
system.tol2bus.snoop_filter.hit_single_snoops            2                       # Number of snoops hitting in the snoop filter with a single holder of the requested data.
system.tol2bus.snoop_filter.hit_multi_snoops            0                       # Number of snoops hitting in the snoop filter with multiple (>1) holders of the requested data.
system.tol2bus.pwrStateResidencyTicks::UNDEFINED  15267344125                       # Cumulative time (in ticks) in various power states
system.tol2bus.trans_dist::ReadResp            298381                       # Transaction distribution
system.tol2bus.trans_dist::WritebackDirty         3564                       # Transaction distribution
system.tol2bus.trans_dist::CleanEvict          477473                       # Transaction distribution
system.tol2bus.trans_dist::ReadExReq             1171                       # Transaction distribution
system.tol2bus.trans_dist::ReadExResp            1171                       # Transaction distribution
system.tol2bus.trans_dist::ReadSharedReq       298380                       # Transaction distribution
system.tol2bus.pkt_count_system.cpu0.dcache.mem_side::system.l2.cpu_side       898655                       # Packet count per connected master and slave (bytes)
system.tol2bus.pkt_count::total                898655                       # Packet count per connected master and slave (bytes)
system.tol2bus.pkt_size_system.cpu0.dcache.mem_side::system.l2.cpu_side     19373760                       # Cumulative packet size per connected master and slave (bytes)
system.tol2bus.pkt_size::total               19373760                       # Cumulative packet size per connected master and slave (bytes)
system.tol2bus.snoops                          181485                       # Total snoops (count)
system.tol2bus.snoopTraffic                     25664                       # Total snoop traffic (bytes)
system.tol2bus.snoop_fanout::samples           481036                       # Request fanout histogram
system.tol2bus.snoop_fanout::mean            0.000840                       # Request fanout histogram
system.tol2bus.snoop_fanout::stdev           0.028968                       # Request fanout histogram
system.tol2bus.snoop_fanout::underflows             0      0.00%      0.00% # Request fanout histogram
system.tol2bus.snoop_fanout::0                 480632     99.92%     99.92% # Request fanout histogram
system.tol2bus.snoop_fanout::1                    404      0.08%    100.00% # Request fanout histogram
system.tol2bus.snoop_fanout::2                      0      0.00%    100.00% # Request fanout histogram
system.tol2bus.snoop_fanout::3                      0      0.00%    100.00% # Request fanout histogram
system.tol2bus.snoop_fanout::4                      0      0.00%    100.00% # Request fanout histogram
system.tol2bus.snoop_fanout::5                      0      0.00%    100.00% # Request fanout histogram
system.tol2bus.snoop_fanout::6                      0      0.00%    100.00% # Request fanout histogram
system.tol2bus.snoop_fanout::7                      0      0.00%    100.00% # Request fanout histogram
system.tol2bus.snoop_fanout::8                      0      0.00%    100.00% # Request fanout histogram
system.tol2bus.snoop_fanout::9                      0      0.00%    100.00% # Request fanout histogram
system.tol2bus.snoop_fanout::10                     0      0.00%    100.00% # Request fanout histogram
system.tol2bus.snoop_fanout::11                     0      0.00%    100.00% # Request fanout histogram
system.tol2bus.snoop_fanout::12                     0      0.00%    100.00% # Request fanout histogram
system.tol2bus.snoop_fanout::13                     0      0.00%    100.00% # Request fanout histogram
system.tol2bus.snoop_fanout::14                     0      0.00%    100.00% # Request fanout histogram
system.tol2bus.snoop_fanout::15                     0      0.00%    100.00% # Request fanout histogram
system.tol2bus.snoop_fanout::16                     0      0.00%    100.00% # Request fanout histogram
system.tol2bus.snoop_fanout::overflows              0      0.00%    100.00% # Request fanout histogram
system.tol2bus.snoop_fanout::min_value              0                       # Request fanout histogram
system.tol2bus.snoop_fanout::max_value              1                       # Request fanout histogram
system.tol2bus.snoop_fanout::total             481036                       # Request fanout histogram
system.tol2bus.reqLayer0.occupancy          302714500                       # Layer occupancy (ticks)
system.tol2bus.reqLayer0.utilization              2.0                       # Layer utilization (%)
system.tol2bus.respLayer1.occupancy         449328000                       # Layer occupancy (ticks)
system.tol2bus.respLayer1.utilization             2.9                       # Layer utilization (%)

---------- End Simulation Statistics   ----------
