
---------- Begin Simulation Statistics ----------
sim_seconds                                  0.015267                       # Number of seconds simulated
sim_ticks                                 15267344125                       # Number of ticks simulated
final_tick                               2885528039625                       # Number of ticks from beginning of simulation (restored from checkpoints and never reset)
sim_freq                                 1000000000000                       # Frequency of simulated ticks
host_inst_rate                               76102085                       # Simulator instruction rate (inst/s)
host_op_rate                                140975070                       # Simulator op (including micro ops) rate (op/s)
host_tick_rate                              209060223                       # Simulator tick rate (ticks/s)
host_mem_usage                                2332656                       # Number of bytes of host memory used
host_seconds                                    73.03                       # Real time elapsed on the host
sim_insts                                  5557615854                       # Number of instructions simulated
sim_ops                                   10295189658                       # Number of ops (including micro ops) simulated
system.voltage_domain.voltage                       1                       # Voltage in Volts
system.clk_domain.clock                          1000                       # Clock period in ticks
system.mem_ctrls.pwrStateResidencyTicks::UNDEFINED  15267344125                       # Cumulative time (in ticks) in various power states
system.mem_ctrls.bytes_read::cpu0.inst            192                       # Number of bytes read from this memory
system.mem_ctrls.bytes_read::cpu0.data        8080704                       # Number of bytes read from this memory
system.mem_ctrls.bytes_read::total            8080896                       # Number of bytes read from this memory
system.mem_ctrls.bytes_inst_read::cpu0.inst          192                       # Number of instructions bytes read from this memory
system.mem_ctrls.bytes_inst_read::total           192                       # Number of instructions bytes read from this memory
system.mem_ctrls.bytes_written::writebacks        81344                       # Number of bytes written to this memory
system.mem_ctrls.bytes_written::total           81344                       # Number of bytes written to this memory
system.mem_ctrls.num_reads::cpu0.inst               3                       # Number of read requests responded to by this memory
system.mem_ctrls.num_reads::cpu0.data          126261                       # Number of read requests responded to by this memory
system.mem_ctrls.num_reads::total              126264                       # Number of read requests responded to by this memory
system.mem_ctrls.num_writes::writebacks          1271                       # Number of write requests responded to by this memory
system.mem_ctrls.num_writes::total               1271                       # Number of write requests responded to by this memory
system.mem_ctrls.bw_read::cpu0.inst             12576                       # Total read bandwidth from this memory (bytes/s)
system.mem_ctrls.bw_read::cpu0.data         529280269                       # Total read bandwidth from this memory (bytes/s)
system.mem_ctrls.bw_read::total             529292845                       # Total read bandwidth from this memory (bytes/s)
system.mem_ctrls.bw_inst_read::cpu0.inst        12576                       # Instruction read bandwidth from this memory (bytes/s)
system.mem_ctrls.bw_inst_read::total            12576                       # Instruction read bandwidth from this memory (bytes/s)
system.mem_ctrls.bw_write::writebacks         5327973                       # Write bandwidth from this memory (bytes/s)
system.mem_ctrls.bw_write::total              5327973                       # Write bandwidth from this memory (bytes/s)
system.mem_ctrls.bw_total::writebacks         5327973                       # Total bandwidth to/from this memory (bytes/s)
system.mem_ctrls.bw_total::cpu0.inst            12576                       # Total bandwidth to/from this memory (bytes/s)
system.mem_ctrls.bw_total::cpu0.data        529280269                       # Total bandwidth to/from this memory (bytes/s)
system.mem_ctrls.bw_total::total            534620818                       # Total bandwidth to/from this memory (bytes/s)
system.mem_ctrls.readReqs                      126265                       # Number of read requests accepted
system.mem_ctrls.writeReqs                       1271                       # Number of write requests accepted
system.mem_ctrls.readBursts                    126265                       # Number of DRAM read bursts, including those serviced by the write queue
system.mem_ctrls.writeBursts                     1271                       # Number of DRAM write bursts, including those merged in the write queue
system.mem_ctrls.bytesReadDRAM                8069440                       # Total number of bytes read from DRAM
system.mem_ctrls.bytesReadWrQ                   11520                       # Total number of bytes read from write queue
system.mem_ctrls.bytesWritten                   81856                       # Total number of bytes written to DRAM
system.mem_ctrls.bytesReadSys                 8080960                       # Total read bytes from the system interface side
system.mem_ctrls.bytesWrittenSys                81344                       # Total written bytes from the system interface side
system.mem_ctrls.servicedByWrQ                    180                       # Number of DRAM read bursts serviced by the write queue
system.mem_ctrls.mergedWrBursts                     0                       # Number of DRAM write bursts merged with an existing one
system.mem_ctrls.neitherReadNorWriteReqs            0                       # Number of requests that are neither read nor write
system.mem_ctrls.perBankRdBursts::0              7683                       # Per bank write bursts
system.mem_ctrls.perBankRdBursts::1              7366                       # Per bank write bursts
system.mem_ctrls.perBankRdBursts::2              7368                       # Per bank write bursts
system.mem_ctrls.perBankRdBursts::3              7345                       # Per bank write bursts
system.mem_ctrls.perBankRdBursts::4              7651                       # Per bank write bursts
system.mem_ctrls.perBankRdBursts::5              7526                       # Per bank write bursts
system.mem_ctrls.perBankRdBursts::6              7314                       # Per bank write bursts
system.mem_ctrls.perBankRdBursts::7              7510                       # Per bank write bursts
system.mem_ctrls.perBankRdBursts::8              7440                       # Per bank write bursts
system.mem_ctrls.perBankRdBursts::9              7431                       # Per bank write bursts
system.mem_ctrls.perBankRdBursts::10             7320                       # Per bank write bursts
system.mem_ctrls.perBankRdBursts::11             8153                       # Per bank write bursts
system.mem_ctrls.perBankRdBursts::12             9825                       # Per bank write bursts
system.mem_ctrls.perBankRdBursts::13             9236                       # Per bank write bursts
system.mem_ctrls.perBankRdBursts::14             8886                       # Per bank write bursts
system.mem_ctrls.perBankRdBursts::15             8031                       # Per bank write bursts
system.mem_ctrls.perBankWrBursts::0                 7                       # Per bank write bursts
system.mem_ctrls.perBankWrBursts::1                19                       # Per bank write bursts
system.mem_ctrls.perBankWrBursts::2                29                       # Per bank write bursts
system.mem_ctrls.perBankWrBursts::3                63                       # Per bank write bursts
system.mem_ctrls.perBankWrBursts::4               165                       # Per bank write bursts
system.mem_ctrls.perBankWrBursts::5               104                       # Per bank write bursts
system.mem_ctrls.perBankWrBursts::6               127                       # Per bank write bursts
system.mem_ctrls.perBankWrBursts::7               123                       # Per bank write bursts
system.mem_ctrls.perBankWrBursts::8               122                       # Per bank write bursts
system.mem_ctrls.perBankWrBursts::9               109                       # Per bank write bursts
system.mem_ctrls.perBankWrBursts::10               96                       # Per bank write bursts
system.mem_ctrls.perBankWrBursts::11               94                       # Per bank write bursts
system.mem_ctrls.perBankWrBursts::12              134                       # Per bank write bursts
system.mem_ctrls.perBankWrBursts::13               28                       # Per bank write bursts
system.mem_ctrls.perBankWrBursts::14               26                       # Per bank write bursts
system.mem_ctrls.perBankWrBursts::15               33                       # Per bank write bursts
system.mem_ctrls.numRdRetry                         0                       # Number of times read queue was full causing retry
system.mem_ctrls.numWrRetry                         0                       # Number of times write queue was full causing retry
system.mem_ctrls.totGap                   15267374500                       # Total gap between requests
system.mem_ctrls.readPktSize::0                     0                       # Read request sizes (log2)
system.mem_ctrls.readPktSize::1                     0                       # Read request sizes (log2)
system.mem_ctrls.readPktSize::2                     0                       # Read request sizes (log2)
system.mem_ctrls.readPktSize::3                     0                       # Read request sizes (log2)
system.mem_ctrls.readPktSize::4                     0                       # Read request sizes (log2)
system.mem_ctrls.readPktSize::5                     0                       # Read request sizes (log2)
system.mem_ctrls.readPktSize::6                126265                       # Read request sizes (log2)
system.mem_ctrls.writePktSize::0                    0                       # Write request sizes (log2)
system.mem_ctrls.writePktSize::1                    0                       # Write request sizes (log2)
system.mem_ctrls.writePktSize::2                    0                       # Write request sizes (log2)
system.mem_ctrls.writePktSize::3                    0                       # Write request sizes (log2)
system.mem_ctrls.writePktSize::4                    0                       # Write request sizes (log2)
system.mem_ctrls.writePktSize::5                    0                       # Write request sizes (log2)
system.mem_ctrls.writePktSize::6                 1271                       # Write request sizes (log2)
system.mem_ctrls.rdQLenPdf::0                   99870                       # What read queue length does an incoming req see
system.mem_ctrls.rdQLenPdf::1                   24074                       # What read queue length does an incoming req see
system.mem_ctrls.rdQLenPdf::2                    2037                       # What read queue length does an incoming req see
system.mem_ctrls.rdQLenPdf::3                     104                       # What read queue length does an incoming req see
system.mem_ctrls.rdQLenPdf::4                       0                       # What read queue length does an incoming req see
system.mem_ctrls.rdQLenPdf::5                       0                       # What read queue length does an incoming req see
system.mem_ctrls.rdQLenPdf::6                       0                       # What read queue length does an incoming req see
system.mem_ctrls.rdQLenPdf::7                       0                       # What read queue length does an incoming req see
system.mem_ctrls.rdQLenPdf::8                       0                       # What read queue length does an incoming req see
system.mem_ctrls.rdQLenPdf::9                       0                       # What read queue length does an incoming req see
system.mem_ctrls.rdQLenPdf::10                      0                       # What read queue length does an incoming req see
system.mem_ctrls.rdQLenPdf::11                      0                       # What read queue length does an incoming req see
system.mem_ctrls.rdQLenPdf::12                      0                       # What read queue length does an incoming req see
system.mem_ctrls.rdQLenPdf::13                      0                       # What read queue length does an incoming req see
system.mem_ctrls.rdQLenPdf::14                      0                       # What read queue length does an incoming req see
system.mem_ctrls.rdQLenPdf::15                      0                       # What read queue length does an incoming req see
system.mem_ctrls.rdQLenPdf::16                      0                       # What read queue length does an incoming req see
system.mem_ctrls.rdQLenPdf::17                      0                       # What read queue length does an incoming req see
system.mem_ctrls.rdQLenPdf::18                      0                       # What read queue length does an incoming req see
system.mem_ctrls.rdQLenPdf::19                      0                       # What read queue length does an incoming req see
system.mem_ctrls.rdQLenPdf::20                      0                       # What read queue length does an incoming req see
system.mem_ctrls.rdQLenPdf::21                      0                       # What read queue length does an incoming req see
system.mem_ctrls.rdQLenPdf::22                      0                       # What read queue length does an incoming req see
system.mem_ctrls.rdQLenPdf::23                      0                       # What read queue length does an incoming req see
system.mem_ctrls.rdQLenPdf::24                      0                       # What read queue length does an incoming req see
system.mem_ctrls.rdQLenPdf::25                      0                       # What read queue length does an incoming req see
system.mem_ctrls.rdQLenPdf::26                      0                       # What read queue length does an incoming req see
system.mem_ctrls.rdQLenPdf::27                      0                       # What read queue length does an incoming req see
system.mem_ctrls.rdQLenPdf::28                      0                       # What read queue length does an incoming req see
system.mem_ctrls.rdQLenPdf::29                      0                       # What read queue length does an incoming req see
system.mem_ctrls.rdQLenPdf::30                      0                       # What read queue length does an incoming req see
system.mem_ctrls.rdQLenPdf::31                      0                       # What read queue length does an incoming req see
system.mem_ctrls.wrQLenPdf::0                       0                       # What write queue length does an incoming req see
system.mem_ctrls.wrQLenPdf::1                       0                       # What write queue length does an incoming req see
system.mem_ctrls.wrQLenPdf::2                       0                       # What write queue length does an incoming req see
system.mem_ctrls.wrQLenPdf::3                       0                       # What write queue length does an incoming req see
system.mem_ctrls.wrQLenPdf::4                       0                       # What write queue length does an incoming req see
system.mem_ctrls.wrQLenPdf::5                       0                       # What write queue length does an incoming req see
system.mem_ctrls.wrQLenPdf::6                       0                       # What write queue length does an incoming req see
system.mem_ctrls.wrQLenPdf::7                       0                       # What write queue length does an incoming req see
system.mem_ctrls.wrQLenPdf::8                       0                       # What write queue length does an incoming req see
system.mem_ctrls.wrQLenPdf::9                       0                       # What write queue length does an incoming req see
system.mem_ctrls.wrQLenPdf::10                      0                       # What write queue length does an incoming req see
system.mem_ctrls.wrQLenPdf::11                      0                       # What write queue length does an incoming req see
system.mem_ctrls.wrQLenPdf::12                      0                       # What write queue length does an incoming req see
system.mem_ctrls.wrQLenPdf::13                      0                       # What write queue length does an incoming req see
system.mem_ctrls.wrQLenPdf::14                      0                       # What write queue length does an incoming req see
system.mem_ctrls.wrQLenPdf::15                      7                       # What write queue length does an incoming req see
system.mem_ctrls.wrQLenPdf::16                      8                       # What write queue length does an incoming req see
system.mem_ctrls.wrQLenPdf::17                     78                       # What write queue length does an incoming req see
system.mem_ctrls.wrQLenPdf::18                     79                       # What write queue length does an incoming req see
system.mem_ctrls.wrQLenPdf::19                     79                       # What write queue length does an incoming req see
system.mem_ctrls.wrQLenPdf::20                     79                       # What write queue length does an incoming req see
system.mem_ctrls.wrQLenPdf::21                     79                       # What write queue length does an incoming req see
system.mem_ctrls.wrQLenPdf::22                     79                       # What write queue length does an incoming req see
system.mem_ctrls.wrQLenPdf::23                     78                       # What write queue length does an incoming req see
system.mem_ctrls.wrQLenPdf::24                     78                       # What write queue length does an incoming req see
system.mem_ctrls.wrQLenPdf::25                     78                       # What write queue length does an incoming req see
system.mem_ctrls.wrQLenPdf::26                     78                       # What write queue length does an incoming req see
system.mem_ctrls.wrQLenPdf::27                     78                       # What write queue length does an incoming req see
system.mem_ctrls.wrQLenPdf::28                     78                       # What write queue length does an incoming req see
system.mem_ctrls.wrQLenPdf::29                     78                       # What write queue length does an incoming req see
system.mem_ctrls.wrQLenPdf::30                     78                       # What write queue length does an incoming req see
system.mem_ctrls.wrQLenPdf::31                     79                       # What write queue length does an incoming req see
system.mem_ctrls.wrQLenPdf::32                     80                       # What write queue length does an incoming req see
system.mem_ctrls.wrQLenPdf::33                      0                       # What write queue length does an incoming req see
system.mem_ctrls.wrQLenPdf::34                      0                       # What write queue length does an incoming req see
system.mem_ctrls.wrQLenPdf::35                      0                       # What write queue length does an incoming req see
system.mem_ctrls.wrQLenPdf::36                      0                       # What write queue length does an incoming req see
system.mem_ctrls.wrQLenPdf::37                      0                       # What write queue length does an incoming req see
system.mem_ctrls.wrQLenPdf::38                      0                       # What write queue length does an incoming req see
system.mem_ctrls.wrQLenPdf::39                      0                       # What write queue length does an incoming req see
system.mem_ctrls.wrQLenPdf::40                      0                       # What write queue length does an incoming req see
system.mem_ctrls.wrQLenPdf::41                      0                       # What write queue length does an incoming req see
system.mem_ctrls.wrQLenPdf::42                      0                       # What write queue length does an incoming req see
system.mem_ctrls.wrQLenPdf::43                      0                       # What write queue length does an incoming req see
system.mem_ctrls.wrQLenPdf::44                      0                       # What write queue length does an incoming req see
system.mem_ctrls.wrQLenPdf::45                      0                       # What write queue length does an incoming req see
system.mem_ctrls.wrQLenPdf::46                      0                       # What write queue length does an incoming req see
system.mem_ctrls.wrQLenPdf::47                      0                       # What write queue length does an incoming req see
system.mem_ctrls.wrQLenPdf::48                      0                       # What write queue length does an incoming req see
system.mem_ctrls.wrQLenPdf::49                      0                       # What write queue length does an incoming req see
system.mem_ctrls.wrQLenPdf::50                      0                       # What write queue length does an incoming req see
system.mem_ctrls.wrQLenPdf::51                      0                       # What write queue length does an incoming req see
system.mem_ctrls.wrQLenPdf::52                      0                       # What write queue length does an incoming req see
system.mem_ctrls.wrQLenPdf::53                      0                       # What write queue length does an incoming req see
system.mem_ctrls.wrQLenPdf::54                      0                       # What write queue length does an incoming req see
system.mem_ctrls.wrQLenPdf::55                      0                       # What write queue length does an incoming req see
system.mem_ctrls.wrQLenPdf::56                      0                       # What write queue length does an incoming req see
system.mem_ctrls.wrQLenPdf::57                      0                       # What write queue length does an incoming req see
system.mem_ctrls.wrQLenPdf::58                      0                       # What write queue length does an incoming req see
system.mem_ctrls.wrQLenPdf::59                      0                       # What write queue length does an incoming req see
system.mem_ctrls.wrQLenPdf::60                      0                       # What write queue length does an incoming req see
system.mem_ctrls.wrQLenPdf::61                      0                       # What write queue length does an incoming req see
system.mem_ctrls.wrQLenPdf::62                      0                       # What write queue length does an incoming req see
system.mem_ctrls.wrQLenPdf::63                      0                       # What write queue length does an incoming req see
system.mem_ctrls.bytesPerActivate::samples        79522                       # Bytes accessed per row activation
system.mem_ctrls.bytesPerActivate::mean    102.497221                       # Bytes accessed per row activation
system.mem_ctrls.bytesPerActivate::gmean    90.256018                       # Bytes accessed per row activation
system.mem_ctrls.bytesPerActivate::stdev    60.977324                       # Bytes accessed per row activation
system.mem_ctrls.bytesPerActivate::64-127        48871     61.46%     61.46% # Bytes accessed per row activation
system.mem_ctrls.bytesPerActivate::128-191        19432     24.44%     85.89% # Bytes accessed per row activation
system.mem_ctrls.bytesPerActivate::192-255         7255      9.12%     95.02% # Bytes accessed per row activation
system.mem_ctrls.bytesPerActivate::256-319         2677      3.37%     98.38% # Bytes accessed per row activation
system.mem_ctrls.bytesPerActivate::320-383          887      1.12%     99.50% # Bytes accessed per row activation
system.mem_ctrls.bytesPerActivate::384-447          252      0.32%     99.81% # Bytes accessed per row activation
system.mem_ctrls.bytesPerActivate::448-511           78      0.10%     99.91% # Bytes accessed per row activation
system.mem_ctrls.bytesPerActivate::512-575           32      0.04%     99.95% # Bytes accessed per row activation
system.mem_ctrls.bytesPerActivate::576-639           17      0.02%     99.97% # Bytes accessed per row activation
system.mem_ctrls.bytesPerActivate::640-703            6      0.01%     99.98% # Bytes accessed per row activation
system.mem_ctrls.bytesPerActivate::704-767            5      0.01%     99.99% # Bytes accessed per row activation
system.mem_ctrls.bytesPerActivate::768-831            3      0.00%     99.99% # Bytes accessed per row activation
system.mem_ctrls.bytesPerActivate::832-895            4      0.01%    100.00% # Bytes accessed per row activation
system.mem_ctrls.bytesPerActivate::896-959            2      0.00%    100.00% # Bytes accessed per row activation
system.mem_ctrls.bytesPerActivate::960-1023            1      0.00%    100.00% # Bytes accessed per row activation
system.mem_ctrls.bytesPerActivate::total        79522                       # Bytes accessed per row activation
system.mem_ctrls.rdPerTurnAround::samples           79                       # Reads before turning the bus around for writes
system.mem_ctrls.rdPerTurnAround::mean    1602.481013                       # Reads before turning the bus around for writes
system.mem_ctrls.rdPerTurnAround::gmean   1542.604298                       # Reads before turning the bus around for writes
system.mem_ctrls.rdPerTurnAround::stdev    430.744075                       # Reads before turning the bus around for writes
system.mem_ctrls.rdPerTurnAround::768-895            4      5.06%      5.06% # Reads before turning the bus around for writes
system.mem_ctrls.rdPerTurnAround::896-1023            5      6.33%     11.39% # Reads before turning the bus around for writes
system.mem_ctrls.rdPerTurnAround::1024-1151            5      6.33%     17.72% # Reads before turning the bus around for writes
system.mem_ctrls.rdPerTurnAround::1152-1279            5      6.33%     24.05% # Reads before turning the bus around for writes
system.mem_ctrls.rdPerTurnAround::1280-1407            6      7.59%     31.65% # Reads before turning the bus around for writes
system.mem_ctrls.rdPerTurnAround::1408-1535           11     13.92%     45.57% # Reads before turning the bus around for writes
system.mem_ctrls.rdPerTurnAround::1536-1663            7      8.86%     54.43% # Reads before turning the bus around for writes
system.mem_ctrls.rdPerTurnAround::1664-1791            7      8.86%     63.29% # Reads before turning the bus around for writes
system.mem_ctrls.rdPerTurnAround::1792-1919           14     17.72%     81.01% # Reads before turning the bus around for writes
system.mem_ctrls.rdPerTurnAround::1920-2047            4      5.06%     86.08% # Reads before turning the bus around for writes
system.mem_ctrls.rdPerTurnAround::2048-2175            5      6.33%     92.41% # Reads before turning the bus around for writes
system.mem_ctrls.rdPerTurnAround::2176-2303            2      2.53%     94.94% # Reads before turning the bus around for writes
system.mem_ctrls.rdPerTurnAround::2432-2559            3      3.80%     98.73% # Reads before turning the bus around for writes
system.mem_ctrls.rdPerTurnAround::2688-2815            1      1.27%    100.00% # Reads before turning the bus around for writes
system.mem_ctrls.rdPerTurnAround::total            79                       # Reads before turning the bus around for writes
system.mem_ctrls.wrPerTurnAround::samples           79                       # Writes before turning the bus around for reads
system.mem_ctrls.wrPerTurnAround::mean      16.189873                       # Writes before turning the bus around for reads
system.mem_ctrls.wrPerTurnAround::gmean     16.180270                       # Writes before turning the bus around for reads
system.mem_ctrls.wrPerTurnAround::stdev      0.579034                       # Writes before turning the bus around for reads
system.mem_ctrls.wrPerTurnAround::16               71     89.87%     89.87% # Writes before turning the bus around for reads
system.mem_ctrls.wrPerTurnAround::17                1      1.27%     91.14% # Writes before turning the bus around for reads
system.mem_ctrls.wrPerTurnAround::18                7      8.86%    100.00% # Writes before turning the bus around for reads
system.mem_ctrls.wrPerTurnAround::total            79                       # Writes before turning the bus around for reads
system.mem_ctrls.totQLat                   3346509500                       # Total ticks spent queuing
system.mem_ctrls.totMemAccLat              5710603250                       # Total ticks spent from burst creation until serviced by the DRAM
system.mem_ctrls.totBusLat                  630425000                       # Total ticks spent in databus transfers
system.mem_ctrls.avgQLat                     26541.69                       # Average queueing delay per DRAM burst
system.mem_ctrls.avgBusLat                    5000.00                       # Average bus latency per DRAM burst
system.mem_ctrls.avgMemAccLat                45291.69                       # Average memory access latency per DRAM burst
system.mem_ctrls.avgRdBW                       528.54                       # Average DRAM read bandwidth in MiByte/s
system.mem_ctrls.avgWrBW                         5.36                       # Average achieved write bandwidth in MiByte/s
system.mem_ctrls.avgRdBWSys                    529.30                       # Average system read bandwidth in MiByte/s
system.mem_ctrls.avgWrBWSys                      5.33                       # Average system write bandwidth in MiByte/s
system.mem_ctrls.peakBW                      12800.00                       # Theoretical peak bandwidth in MiByte/s
system.mem_ctrls.busUtil                         4.17                       # Data bus utilization in percentage
system.mem_ctrls.busUtilRead                     4.13                       # Data bus utilization in percentage for reads
system.mem_ctrls.busUtilWrite                    0.04                       # Data bus utilization in percentage for writes
system.mem_ctrls.avgRdQLen                       1.21                       # Average read queue length when enqueuing
system.mem_ctrls.avgWrQLen                      25.29                       # Average write queue length when enqueuing
system.mem_ctrls.readRowHits                    46883                       # Number of row buffer hits during reads
system.mem_ctrls.writeRowHits                     954                       # Number of row buffer hits during writes
system.mem_ctrls.readRowHitRate                 37.18                       # Row buffer hit rate for reads
system.mem_ctrls.writeRowHitRate                75.06                       # Row buffer hit rate for writes
system.mem_ctrls.avgGap                     119710.31                       # Average gap between requests
system.mem_ctrls.pageHitRate                    37.56                       # Row buffer hit rate, read and write combined
system.mem_ctrls_0.actEnergy                270441780                       # Energy for activate commands per rank (pJ)
system.mem_ctrls_0.preEnergy                143743215                       # Energy for precharge commands per rank (pJ)
system.mem_ctrls_0.readEnergy               426707820                       # Energy for read commands per rank (pJ)
system.mem_ctrls_0.writeEnergy                3325140                       # Energy for write commands per rank (pJ)
system.mem_ctrls_0.refreshEnergy         1210840800.000000                       # Energy for refresh commands per rank (pJ)
system.mem_ctrls_0.actBackEnergy           1179051840                       # Energy for active background per rank (pJ)
system.mem_ctrls_0.preBackEnergy             26401440                       # Energy for precharge background per rank (pJ)
system.mem_ctrls_0.actPowerDownEnergy      5225699010                       # Energy for active power-down per rank (pJ)
system.mem_ctrls_0.prePowerDownEnergy       433886880                       # Energy for precharge power-down per rank (pJ)
system.mem_ctrls_0.selfRefreshEnergy         12739920                       # Energy for self refresh per rank (pJ)
system.mem_ctrls_0.totalEnergy             8932841685                       # Total energy per rank (pJ)
system.mem_ctrls_0.averagePower            585.094671                       # Core power per rank (mW)
system.mem_ctrls_0.totalIdleTime          12612657250                       # Total Idle time Per DRAM Rank
system.mem_ctrls_0.memoryStateTime::IDLE     13806000                       # Time in different power states
system.mem_ctrls_0.memoryStateTime::REF     512308000                       # Time in different power states
system.mem_ctrls_0.memoryStateTime::SREF     23161000                       # Time in different power states
system.mem_ctrls_0.memoryStateTime::PRE_PDN   1129834750                       # Time in different power states
system.mem_ctrls_0.memoryStateTime::ACT    2128460000                       # Time in different power states
system.mem_ctrls_0.memoryStateTime::ACT_PDN  11459774375                       # Time in different power states
system.mem_ctrls_1.actEnergy                297381000                       # Energy for activate commands per rank (pJ)
system.mem_ctrls_1.preEnergy                158042775                       # Energy for precharge commands per rank (pJ)
system.mem_ctrls_1.readEnergy               473539080                       # Energy for read commands per rank (pJ)
system.mem_ctrls_1.writeEnergy                3351240                       # Energy for write commands per rank (pJ)
system.mem_ctrls_1.refreshEnergy         1206538320.000000                       # Energy for refresh commands per rank (pJ)
system.mem_ctrls_1.actBackEnergy           1285784340                       # Energy for active background per rank (pJ)
system.mem_ctrls_1.preBackEnergy             25214880                       # Energy for precharge background per rank (pJ)
system.mem_ctrls_1.actPowerDownEnergy      5276892990                       # Energy for active power-down per rank (pJ)
system.mem_ctrls_1.prePowerDownEnergy       309922080                       # Energy for precharge power-down per rank (pJ)
system.mem_ctrls_1.selfRefreshEnergy          2317920                       # Energy for self refresh per rank (pJ)
system.mem_ctrls_1.totalEnergy             9038984625                       # Total energy per rank (pJ)
system.mem_ctrls_1.averagePower            592.046957                       # Core power per rank (mW)
system.mem_ctrls_1.totalIdleTime          12381795250                       # Total Idle time Per DRAM Rank
system.mem_ctrls_1.memoryStateTime::IDLE     11052500                       # Time in different power states
system.mem_ctrls_1.memoryStateTime::REF     510410000                       # Time in different power states
system.mem_ctrls_1.memoryStateTime::SREF      2754750                       # Time in different power states
system.mem_ctrls_1.memoryStateTime::PRE_PDN    807344750                       # Time in different power states
system.mem_ctrls_1.memoryStateTime::ACT    2364086375                       # Time in different power states
system.mem_ctrls_1.memoryStateTime::ACT_PDN  11571695750                       # Time in different power states
system.pwrStateResidencyTicks::UNDEFINED  15267344125                       # Cumulative time (in ticks) in various power states
system.cpu0.branchPred.lookups                3714432                       # Number of BP lookups
system.cpu0.branchPred.condPredicted          3714432                       # Number of conditional branches predicted
system.cpu0.branchPred.condIncorrect           177114                       # Number of conditional branches incorrect
system.cpu0.branchPred.BTBLookups             2907469                       # Number of BTB lookups
system.cpu0.branchPred.BTBHits                      0                       # Number of BTB hits
system.cpu0.branchPred.BTBCorrect                   0                       # Number of correct BTB predictions (this stat may not work properly.
system.cpu0.branchPred.BTBHitPct             0.000000                       # BTB Hit Percentage
system.cpu0.branchPred.usedRAS                 132674                       # Number of times the RAS was used to get a target.
system.cpu0.branchPred.RASInCorrect             19174                       # Number of incorrect RAS predictions.
system.cpu0.branchPred.indirectLookups        2907469                       # Number of indirect predictor lookups.
system.cpu0.branchPred.indirectHits           1544747                       # Number of indirect target hits.
system.cpu0.branchPred.indirectMisses         1362722                       # Number of indirect misses.
system.cpu0.branchPredindirectMispredicted        68674                       # Number of mispredicted indirect branches.
system.cpu_voltage_domain.voltage                   1                       # Voltage in Volts
system.cpu_clk_domain.clock                       500                       # Clock period in ticks
system.cpu0.dtb.walker.pwrStateResidencyTicks::UNDEFINED  15267344125                       # Cumulative time (in ticks) in various power states
system.cpu0.dtb.rdAccesses                    1853597                       # TLB accesses on read requests
system.cpu0.dtb.wrAccesses                     185740                       # TLB accesses on write requests
system.cpu0.dtb.rdMisses                       358275                       # TLB misses on read requests
system.cpu0.dtb.wrMisses                         3115                       # TLB misses on write requests
system.cpu0.apic_clk_domain.clock                8000                       # Clock period in ticks
system.cpu0.interrupts.pwrStateResidencyTicks::UNDEFINED  15267344125                       # Cumulative time (in ticks) in various power states
system.cpu0.itb.walker.pwrStateResidencyTicks::UNDEFINED  15267344125                       # Cumulative time (in ticks) in various power states
system.cpu0.itb.rdAccesses                          0                       # TLB accesses on read requests
system.cpu0.itb.wrAccesses                    3027029                       # TLB accesses on write requests
system.cpu0.itb.rdMisses                            0                       # TLB misses on read requests
system.cpu0.itb.wrMisses                        11887                       # TLB misses on write requests
system.cpu0.workload.numSyscalls                    1                       # Number of system calls
system.cpu0.pwrStateResidencyTicks::ON    15267344125                       # Cumulative time (in ticks) in various power states
system.cpu0.numCycles                        30534688                       # number of cpu cycles simulated
system.cpu0.numWorkItemsStarted                     0                       # number of work items this cpu started
system.cpu0.numWorkItemsCompleted                   0                       # number of work items this cpu completed
system.cpu0.fetch.icacheStallCycles           3107839                       # Number of cycles fetch is stalled on an Icache miss
system.cpu0.fetch.Insts                      11182177                       # Number of instructions fetch has processed
system.cpu0.fetch.Branches                    3714432                       # Number of branches that fetch encountered
system.cpu0.fetch.predictedBranches           1677421                       # Number of branches that fetch has predicted taken
system.cpu0.fetch.Cycles                     27094137                       # Number of cycles fetch has run and was not squashing or blocked
system.cpu0.fetch.SquashCycles                 361696                       # Number of cycles fetch has spent squashing
system.cpu0.fetch.TlbCycles                      1999                       # Number of cycles fetch has spent waiting for tlb
system.cpu0.fetch.MiscStallCycles                2656                       # Number of cycles fetch has spent waiting on interrupts, or bad addresses, or out of MSHRs
system.cpu0.fetch.PendingTrapStallCycles        94584                       # Number of stall cycles due to pending traps
system.cpu0.fetch.CacheLines                  3015143                       # Number of cache lines fetched
system.cpu0.fetch.IcacheSquashes                31019                       # Number of outstanding Icache misses that were squashed
system.cpu0.fetch.ItlbSquashes                     10                       # Number of outstanding ITLB misses that were squashed
system.cpu0.fetch.rateDist::samples          30482063                       # Number of instructions fetched each cycle (Total)
system.cpu0.fetch.rateDist::mean             0.738849                       # Number of instructions fetched each cycle (Total)
system.cpu0.fetch.rateDist::stdev            2.104375                       # Number of instructions fetched each cycle (Total)
system.cpu0.fetch.rateDist::underflows              0      0.00%      0.00% # Number of instructions fetched each cycle (Total)
system.cpu0.fetch.rateDist::0                26232081     86.06%     86.06% # Number of instructions fetched each cycle (Total)
system.cpu0.fetch.rateDist::1                   70032      0.23%     86.29% # Number of instructions fetched each cycle (Total)
system.cpu0.fetch.rateDist::2                 1411856      4.63%     90.92% # Number of instructions fetched each cycle (Total)
system.cpu0.fetch.rateDist::3                   83245      0.27%     91.19% # Number of instructions fetched each cycle (Total)
system.cpu0.fetch.rateDist::4                  289959      0.95%     92.14% # Number of instructions fetched each cycle (Total)
system.cpu0.fetch.rateDist::5                  161637      0.53%     92.67% # Number of instructions fetched each cycle (Total)
system.cpu0.fetch.rateDist::6                  194928      0.64%     93.31% # Number of instructions fetched each cycle (Total)
system.cpu0.fetch.rateDist::7                   66033      0.22%     93.53% # Number of instructions fetched each cycle (Total)
system.cpu0.fetch.rateDist::8                 1972292      6.47%    100.00% # Number of instructions fetched each cycle (Total)
system.cpu0.fetch.rateDist::overflows               0      0.00%    100.00% # Number of instructions fetched each cycle (Total)
system.cpu0.fetch.rateDist::min_value               0                       # Number of instructions fetched each cycle (Total)
system.cpu0.fetch.rateDist::max_value               8                       # Number of instructions fetched each cycle (Total)
system.cpu0.fetch.rateDist::total            30482063                       # Number of instructions fetched each cycle (Total)
system.cpu0.fetch.branchRate                 0.121646                       # Number of branch fetches per cycle
system.cpu0.fetch.rate                       0.366212                       # Number of inst fetches per cycle
system.cpu0.decode.IdleCycles                 1687448                       # Number of cycles decode is idle
system.cpu0.decode.BlockedCycles             25658072                       # Number of cycles decode is blocked
system.cpu0.decode.RunCycles                  2296702                       # Number of cycles decode is running
system.cpu0.decode.UnblockCycles               658993                       # Number of cycles decode is unblocking
system.cpu0.decode.SquashCycles                180848                       # Number of cycles decode is squashing
system.cpu0.decode.DecodedInsts              19173037                       # Number of instructions handled by decode
system.cpu0.rename.SquashCycles                180848                       # Number of cycles rename is squashing
system.cpu0.rename.IdleCycles                 1932554                       # Number of cycles rename is idle
system.cpu0.rename.BlockCycles               23438199                       # Number of cycles rename is blocking
system.cpu0.rename.serializeStallCycles         37130                       # count of cycles rename stalled for serializing inst
system.cpu0.rename.RunCycles                  2573284                       # Number of cycles rename is running
system.cpu0.rename.UnblockCycles              2320048                       # Number of cycles rename is unblocking
system.cpu0.rename.RenamedInsts              18363469                       # Number of instructions processed by rename
system.cpu0.rename.ROBFullEvents                90253                       # Number of times rename has blocked due to ROB full
system.cpu0.rename.IQFullEvents               1961882                       # Number of times rename has blocked due to IQ full
system.cpu0.rename.LQFullEvents                240613                       # Number of times rename has blocked due to LQ full
system.cpu0.rename.SQFullEvents                  6263                       # Number of times rename has blocked due to SQ full
system.cpu0.rename.RenamedOperands           21831716                       # Number of destination operands rename has renamed
system.cpu0.rename.RenameLookups             50530304                       # Number of register rename lookups that rename has made
system.cpu0.rename.int_rename_lookups        24552836                       # Number of integer rename lookups
system.cpu0.rename.fp_rename_lookups           129491                       # Number of floating rename lookups
system.cpu0.rename.CommittedMaps              8153485                       # Number of HB maps that are committed
system.cpu0.rename.UndoneMaps                13678230                       # Number of HB maps that are undone due to squashing
system.cpu0.rename.serializingInsts               692                       # count of serializing insts renamed
system.cpu0.rename.tempSerializingInsts           860                       # count of temporary serializing insts renamed
system.cpu0.rename.skidInsts                  3930879                       # count of insts added to the skid buffer
system.cpu0.memDep0.insertedLoads             3142476                       # Number of loads inserted to the mem dependence unit.
system.cpu0.memDep0.insertedStores             265909                       # Number of stores inserted to the mem dependence unit.
system.cpu0.memDep0.conflictingLoads            15256                       # Number of conflicting loads.
system.cpu0.memDep0.conflictingStores           14456                       # Number of conflicting stores.
system.cpu0.iq.iqInstsAdded                  17219201                       # Number of instructions added to the IQ (excludes non-spec)
system.cpu0.iq.iqNonSpecInstsAdded              14606                       # Number of non-speculative instructions added to the IQ
system.cpu0.iq.iqInstsIssued                 12643070                       # Number of instructions issued
system.cpu0.iq.iqSquashedInstsIssued            20400                       # Number of squashed instructions issued
system.cpu0.iq.iqSquashedInstsExamined       10446085                       # Number of squashed instructions iterated over during squash; mainly for profiling
system.cpu0.iq.iqSquashedOperandsExamined     21084306                       # Number of squashed operands that are examined and possibly removed from graph
system.cpu0.iq.iqSquashedNonSpecRemoved         14605                       # Number of squashed non-spec instructions that were removed
system.cpu0.iq.issued_per_cycle::samples     30482063                       # Number of insts issued each cycle
system.cpu0.iq.issued_per_cycle::mean        0.414771                       # Number of insts issued each cycle
system.cpu0.iq.issued_per_cycle::stdev       1.184045                       # Number of insts issued each cycle
system.cpu0.iq.issued_per_cycle::underflows            0      0.00%      0.00% # Number of insts issued each cycle
system.cpu0.iq.issued_per_cycle::0           25735159     84.43%     84.43% # Number of insts issued each cycle
system.cpu0.iq.issued_per_cycle::1            1672336      5.49%     89.91% # Number of insts issued each cycle
system.cpu0.iq.issued_per_cycle::2             970066      3.18%     93.10% # Number of insts issued each cycle
system.cpu0.iq.issued_per_cycle::3             691781      2.27%     95.37% # Number of insts issued each cycle
system.cpu0.iq.issued_per_cycle::4             732788      2.40%     97.77% # Number of insts issued each cycle
system.cpu0.iq.issued_per_cycle::5             290738      0.95%     98.72% # Number of insts issued each cycle
system.cpu0.iq.issued_per_cycle::6             222816      0.73%     99.45% # Number of insts issued each cycle
system.cpu0.iq.issued_per_cycle::7              97511      0.32%     99.77% # Number of insts issued each cycle
system.cpu0.iq.issued_per_cycle::8              68868      0.23%    100.00% # Number of insts issued each cycle
system.cpu0.iq.issued_per_cycle::overflows            0      0.00%    100.00% # Number of insts issued each cycle
system.cpu0.iq.issued_per_cycle::min_value            0                       # Number of insts issued each cycle
system.cpu0.iq.issued_per_cycle::max_value            8                       # Number of insts issued each cycle
system.cpu0.iq.issued_per_cycle::total       30482063                       # Number of insts issued each cycle
system.cpu0.iq.fu_full::No_OpClass                  0      0.00%      0.00% # attempts to use FU when none available
system.cpu0.iq.fu_full::IntAlu                  42282     75.54%     75.54% # attempts to use FU when none available
system.cpu0.iq.fu_full::IntMult                     0      0.00%     75.54% # attempts to use FU when none available
system.cpu0.iq.fu_full::IntDiv                      0      0.00%     75.54% # attempts to use FU when none available
system.cpu0.iq.fu_full::FloatAdd                 4230      7.56%     83.10% # attempts to use FU when none available
system.cpu0.iq.fu_full::FloatCmp                    0      0.00%     83.10% # attempts to use FU when none available
system.cpu0.iq.fu_full::FloatCvt                    0      0.00%     83.10% # attempts to use FU when none available
system.cpu0.iq.fu_full::FloatMult                   0      0.00%     83.10% # attempts to use FU when none available
system.cpu0.iq.fu_full::FloatMultAcc                0      0.00%     83.10% # attempts to use FU when none available
system.cpu0.iq.fu_full::FloatDiv                    0      0.00%     83.10% # attempts to use FU when none available
system.cpu0.iq.fu_full::FloatMisc                   0      0.00%     83.10% # attempts to use FU when none available
system.cpu0.iq.fu_full::FloatSqrt                   0      0.00%     83.10% # attempts to use FU when none available
system.cpu0.iq.fu_full::SimdAdd                     0      0.00%     83.10% # attempts to use FU when none available
system.cpu0.iq.fu_full::SimdAddAcc                  0      0.00%     83.10% # attempts to use FU when none available
system.cpu0.iq.fu_full::SimdAlu                     0      0.00%     83.10% # attempts to use FU when none available
system.cpu0.iq.fu_full::SimdCmp                     0      0.00%     83.10% # attempts to use FU when none available
system.cpu0.iq.fu_full::SimdCvt                     0      0.00%     83.10% # attempts to use FU when none available
system.cpu0.iq.fu_full::SimdMisc                    0      0.00%     83.10% # attempts to use FU when none available
system.cpu0.iq.fu_full::SimdMult                    0      0.00%     83.10% # attempts to use FU when none available
system.cpu0.iq.fu_full::SimdMultAcc                 0      0.00%     83.10% # attempts to use FU when none available
system.cpu0.iq.fu_full::SimdShift                   0      0.00%     83.10% # attempts to use FU when none available
system.cpu0.iq.fu_full::SimdShiftAcc                0      0.00%     83.10% # attempts to use FU when none available
system.cpu0.iq.fu_full::SimdSqrt                    0      0.00%     83.10% # attempts to use FU when none available
system.cpu0.iq.fu_full::SimdFloatAdd                0      0.00%     83.10% # attempts to use FU when none available
system.cpu0.iq.fu_full::SimdFloatAlu                0      0.00%     83.10% # attempts to use FU when none available
system.cpu0.iq.fu_full::SimdFloatCmp                0      0.00%     83.10% # attempts to use FU when none available
system.cpu0.iq.fu_full::SimdFloatCvt                0      0.00%     83.10% # attempts to use FU when none available
system.cpu0.iq.fu_full::SimdFloatDiv                0      0.00%     83.10% # attempts to use FU when none available
system.cpu0.iq.fu_full::SimdFloatMisc               0      0.00%     83.10% # attempts to use FU when none available
system.cpu0.iq.fu_full::SimdFloatMult               0      0.00%     83.10% # attempts to use FU when none available
system.cpu0.iq.fu_full::SimdFloatMultAcc            0      0.00%     83.10% # attempts to use FU when none available
system.cpu0.iq.fu_full::SimdFloatSqrt               0      0.00%     83.10% # attempts to use FU when none available
system.cpu0.iq.fu_full::MemRead                  8237     14.72%     97.81% # attempts to use FU when none available
system.cpu0.iq.fu_full::MemWrite                  921      1.65%     99.46% # attempts to use FU when none available
system.cpu0.iq.fu_full::FloatMemRead              280      0.50%     99.96% # attempts to use FU when none available
system.cpu0.iq.fu_full::FloatMemWrite              24      0.04%    100.00% # attempts to use FU when none available
system.cpu0.iq.fu_full::IprAccess                   0      0.00%    100.00% # attempts to use FU when none available
system.cpu0.iq.fu_full::InstPrefetch                0      0.00%    100.00% # attempts to use FU when none available
system.cpu0.iq.FU_type_0::No_OpClass            54092      0.43%      0.43% # Type of FU issued
system.cpu0.iq.FU_type_0::IntAlu             10331841     81.72%     82.15% # Type of FU issued
system.cpu0.iq.FU_type_0::IntMult                3648      0.03%     82.18% # Type of FU issued
system.cpu0.iq.FU_type_0::IntDiv                39588      0.31%     82.49% # Type of FU issued
system.cpu0.iq.FU_type_0::FloatAdd              52129      0.41%     82.90% # Type of FU issued
system.cpu0.iq.FU_type_0::FloatCmp                  0      0.00%     82.90% # Type of FU issued
system.cpu0.iq.FU_type_0::FloatCvt                  0      0.00%     82.90% # Type of FU issued
system.cpu0.iq.FU_type_0::FloatMult                 0      0.00%     82.90% # Type of FU issued
system.cpu0.iq.FU_type_0::FloatMultAcc              0      0.00%     82.90% # Type of FU issued
system.cpu0.iq.FU_type_0::FloatDiv                  0      0.00%     82.90% # Type of FU issued
system.cpu0.iq.FU_type_0::FloatMisc                 0      0.00%     82.90% # Type of FU issued
system.cpu0.iq.FU_type_0::FloatSqrt                 0      0.00%     82.90% # Type of FU issued
system.cpu0.iq.FU_type_0::SimdAdd                   0      0.00%     82.90% # Type of FU issued
system.cpu0.iq.FU_type_0::SimdAddAcc                0      0.00%     82.90% # Type of FU issued
system.cpu0.iq.FU_type_0::SimdAlu                   0      0.00%     82.90% # Type of FU issued
system.cpu0.iq.FU_type_0::SimdCmp                   0      0.00%     82.90% # Type of FU issued
system.cpu0.iq.FU_type_0::SimdCvt                   0      0.00%     82.90% # Type of FU issued
system.cpu0.iq.FU_type_0::SimdMisc                  0      0.00%     82.90% # Type of FU issued
system.cpu0.iq.FU_type_0::SimdMult                  0      0.00%     82.90% # Type of FU issued
system.cpu0.iq.FU_type_0::SimdMultAcc               0      0.00%     82.90% # Type of FU issued
system.cpu0.iq.FU_type_0::SimdShift                 0      0.00%     82.90% # Type of FU issued
system.cpu0.iq.FU_type_0::SimdShiftAcc              0      0.00%     82.90% # Type of FU issued
system.cpu0.iq.FU_type_0::SimdSqrt                  0      0.00%     82.90% # Type of FU issued
system.cpu0.iq.FU_type_0::SimdFloatAdd              0      0.00%     82.90% # Type of FU issued
system.cpu0.iq.FU_type_0::SimdFloatAlu              0      0.00%     82.90% # Type of FU issued
system.cpu0.iq.FU_type_0::SimdFloatCmp              0      0.00%     82.90% # Type of FU issued
system.cpu0.iq.FU_type_0::SimdFloatCvt              0      0.00%     82.90% # Type of FU issued
system.cpu0.iq.FU_type_0::SimdFloatDiv              0      0.00%     82.90% # Type of FU issued
system.cpu0.iq.FU_type_0::SimdFloatMisc             0      0.00%     82.90% # Type of FU issued
system.cpu0.iq.FU_type_0::SimdFloatMult             0      0.00%     82.90% # Type of FU issued
system.cpu0.iq.FU_type_0::SimdFloatMultAcc            0      0.00%     82.90% # Type of FU issued
system.cpu0.iq.FU_type_0::SimdFloatSqrt             0      0.00%     82.90% # Type of FU issued
system.cpu0.iq.FU_type_0::MemRead             1953256     15.45%     98.35% # Type of FU issued
system.cpu0.iq.FU_type_0::MemWrite             199392      1.58%     99.93% # Type of FU issued
system.cpu0.iq.FU_type_0::FloatMemRead           9063      0.07%    100.00% # Type of FU issued
system.cpu0.iq.FU_type_0::FloatMemWrite            61      0.00%    100.00% # Type of FU issued
system.cpu0.iq.FU_type_0::IprAccess                 0      0.00%    100.00% # Type of FU issued
system.cpu0.iq.FU_type_0::InstPrefetch              0      0.00%    100.00% # Type of FU issued
system.cpu0.iq.FU_type_0::total              12643070                       # Type of FU issued
system.cpu0.iq.rate                          0.414056                       # Inst issue rate
system.cpu0.iq.fu_busy_cnt                      55974                       # FU busy when requested
system.cpu0.iq.fu_busy_rate                  0.004427                       # FU busy rate (busy events/executed inst)
system.cpu0.iq.int_inst_queue_reads          55716981                       # Number of integer instruction queue reads
system.cpu0.iq.int_inst_queue_writes         27579957                       # Number of integer instruction queue writes
system.cpu0.iq.int_inst_queue_wakeup_accesses     12026797                       # Number of integer instruction queue wakeup accesses
system.cpu0.iq.fp_inst_queue_reads             127596                       # Number of floating instruction queue reads
system.cpu0.iq.fp_inst_queue_writes             99948                       # Number of floating instruction queue writes
system.cpu0.iq.fp_inst_queue_wakeup_accesses        57494                       # Number of floating instruction queue wakeup accesses
system.cpu0.iq.vec_inst_queue_reads                 0                       # Number of vector instruction queue reads
system.cpu0.iq.vec_inst_queue_writes                0                       # Number of vector instruction queue writes
system.cpu0.iq.vec_inst_queue_wakeup_accesses            0                       # Number of vector instruction queue wakeup accesses
system.cpu0.iq.int_alu_accesses              12579157                       # Number of integer alu accesses
system.cpu0.iq.fp_alu_accesses                  65795                       # Number of floating point alu accesses
system.cpu0.iq.vec_alu_accesses                     0                       # Number of vector alu accesses
system.cpu0.iew.lsq.thread0.forwLoads           18262                       # Number of loads that had data forwarded from stores
system.cpu0.iew.lsq.thread0.invAddrLoads            0                       # Number of loads ignored due to an invalid address
system.cpu0.iew.lsq.thread0.squashedLoads      1946042                       # Number of loads squashed
system.cpu0.iew.lsq.thread0.ignoredResponses          535                       # Number of memory responses ignored because the instruction is squashed
system.cpu0.iew.lsq.thread0.memOrderViolation           18                       # Number of memory ordering violations
system.cpu0.iew.lsq.thread0.squashedStores       148130                       # Number of stores squashed
system.cpu0.iew.lsq.thread0.invAddrSwpfs            0                       # Number of software prefetches ignored due to an invalid address
system.cpu0.iew.lsq.thread0.blockedLoads            0                       # Number of blocked loads due to partial load-store forwarding
system.cpu0.iew.lsq.thread0.rescheduledLoads          167                       # Number of loads that were rescheduled
system.cpu0.iew.lsq.thread0.cacheBlocked         1987                       # Number of times an access to memory failed due to the cache being blocked
system.cpu0.iew.iewIdleCycles                       0                       # Number of cycles IEW is idle
system.cpu0.iew.iewSquashCycles                180848                       # Number of cycles IEW is squashing
system.cpu0.iew.iewBlockCycles               20716033                       # Number of cycles IEW is blocking
system.cpu0.iew.iewUnblockCycles               414690                       # Number of cycles IEW is unblocking
system.cpu0.iew.iewDispatchedInsts           17233807                       # Number of instructions dispatched to IQ
system.cpu0.iew.iewDispSquashedInsts            10136                       # Number of squashed instructions skipped by dispatch
system.cpu0.iew.iewDispLoadInsts              3142476                       # Number of dispatched load instructions
system.cpu0.iew.iewDispStoreInsts              265909                       # Number of dispatched store instructions
system.cpu0.iew.iewDispNonSpecInsts              5307                       # Number of dispatched non-speculative instructions
system.cpu0.iew.iewIQFullEvents                 34009                       # Number of times the IQ has become full, causing a stall
system.cpu0.iew.iewLSQFullEvents                63968                       # Number of times the LSQ has become full, causing a stall
system.cpu0.iew.memOrderViolationEvents            18                       # Number of memory order violations
system.cpu0.iew.predictedTakenIncorrect         90511                       # Number of branches that were predicted taken incorrectly
system.cpu0.iew.predictedNotTakenIncorrect       115150                       # Number of branches that were predicted not taken incorrectly
system.cpu0.iew.branchMispredicts              205661                       # Number of branch mispredicts detected at execute
system.cpu0.iew.iewExecutedInsts             12348274                       # Number of executed instructions
system.cpu0.iew.iewExecLoadInsts              1852610                       # Number of load instructions executed
system.cpu0.iew.iewExecSquashedInsts           294796                       # Number of squashed instructions skipped in execute
system.cpu0.iew.exec_swp                            0                       # number of swp insts executed
system.cpu0.iew.exec_nop                            0                       # number of nop insts executed
system.cpu0.iew.exec_refs                     2038298                       # number of memory reference insts executed
system.cpu0.iew.exec_branches                 1469552                       # Number of branches executed
system.cpu0.iew.exec_stores                    185688                       # Number of stores executed
system.cpu0.iew.exec_rate                    0.404402                       # Inst execution rate
system.cpu0.iew.wb_sent                      12141084                       # cumulative count of insts sent to commit
system.cpu0.iew.wb_count                     12084291                       # cumulative count of insts written-back
system.cpu0.iew.wb_producers                  9012808                       # num instructions producing a value
system.cpu0.iew.wb_consumers                 14498935                       # num instructions consuming a value
system.cpu0.iew.wb_rate                      0.395756                       # insts written-back per cycle
system.cpu0.iew.wb_fanout                    0.621619                       # average fanout of values written-back
system.cpu0.commit.commitSquashedInsts       10447141                       # The number of squashed insts skipped by commit
system.cpu0.commit.commitNonSpecStalls              1                       # The number of times commit has been forced to stall to communicate backwards
system.cpu0.commit.branchMispredicts           180839                       # The number of times a branch was mispredicted
system.cpu0.commit.committed_per_cycle::samples     28987737                       # Number of insts commited each cycle
system.cpu0.commit.committed_per_cycle::mean     0.234158                       # Number of insts commited each cycle
system.cpu0.commit.committed_per_cycle::stdev     0.923636                       # Number of insts commited each cycle
system.cpu0.commit.committed_per_cycle::underflows            0      0.00%      0.00% # Number of insts commited each cycle
system.cpu0.commit.committed_per_cycle::0     26260273     90.59%     90.59% # Number of insts commited each cycle
system.cpu0.commit.committed_per_cycle::1      1189111      4.10%     94.69% # Number of insts commited each cycle
system.cpu0.commit.committed_per_cycle::2       311415      1.07%     95.77% # Number of insts commited each cycle
system.cpu0.commit.committed_per_cycle::3       774231      2.67%     98.44% # Number of insts commited each cycle
system.cpu0.commit.committed_per_cycle::4       152851      0.53%     98.97% # Number of insts commited each cycle
system.cpu0.commit.committed_per_cycle::5        98304      0.34%     99.30% # Number of insts commited each cycle
system.cpu0.commit.committed_per_cycle::6        23663      0.08%     99.39% # Number of insts commited each cycle
system.cpu0.commit.committed_per_cycle::7        14926      0.05%     99.44% # Number of insts commited each cycle
system.cpu0.commit.committed_per_cycle::8       162963      0.56%    100.00% # Number of insts commited each cycle
system.cpu0.commit.committed_per_cycle::overflows            0      0.00%    100.00% # Number of insts commited each cycle
system.cpu0.commit.committed_per_cycle::min_value            0                       # Number of insts commited each cycle
system.cpu0.commit.committed_per_cycle::max_value            8                       # Number of insts commited each cycle
system.cpu0.commit.committed_per_cycle::total     28987737                       # Number of insts commited each cycle
system.cpu0.commit.committedInsts             3398781                       # Number of instructions committed
system.cpu0.commit.committedOps               6787722                       # Number of ops (including micro ops) committed
system.cpu0.commit.swp_count                        0                       # Number of s/w prefetches committed
system.cpu0.commit.refs                       1314213                       # Number of memory references committed
system.cpu0.commit.loads                      1196434                       # Number of loads committed
system.cpu0.commit.membars                          0                       # Number of memory barriers committed
system.cpu0.commit.branches                   1148910                       # Number of branches committed
system.cpu0.commit.vec_insts                        0                       # Number of committed Vector instructions.
system.cpu0.commit.fp_insts                     47060                       # Number of committed floating point instructions.
system.cpu0.commit.int_insts                  6740109                       # Number of committed integer instructions.
system.cpu0.commit.function_calls               20804                       # Number of function calls committed.
system.cpu0.commit.op_class_0::No_OpClass        14176      0.21%      0.21% # Class of committed instruction
system.cpu0.commit.op_class_0::IntAlu         5384013     79.32%     79.53% # Class of committed instruction
system.cpu0.commit.op_class_0::IntMult            832      0.01%     79.54% # Class of committed instruction
system.cpu0.commit.op_class_0::IntDiv           34240      0.50%     80.05% # Class of committed instruction
system.cpu0.commit.op_class_0::FloatAdd         40248      0.59%     80.64% # Class of committed instruction
system.cpu0.commit.op_class_0::FloatCmp             0      0.00%     80.64% # Class of committed instruction
system.cpu0.commit.op_class_0::FloatCvt             0      0.00%     80.64% # Class of committed instruction
system.cpu0.commit.op_class_0::FloatMult            0      0.00%     80.64% # Class of committed instruction
system.cpu0.commit.op_class_0::FloatMultAcc            0      0.00%     80.64% # Class of committed instruction
system.cpu0.commit.op_class_0::FloatDiv             0      0.00%     80.64% # Class of committed instruction
system.cpu0.commit.op_class_0::FloatMisc            0      0.00%     80.64% # Class of committed instruction
system.cpu0.commit.op_class_0::FloatSqrt            0      0.00%     80.64% # Class of committed instruction
system.cpu0.commit.op_class_0::SimdAdd              0      0.00%     80.64% # Class of committed instruction
system.cpu0.commit.op_class_0::SimdAddAcc            0      0.00%     80.64% # Class of committed instruction
system.cpu0.commit.op_class_0::SimdAlu              0      0.00%     80.64% # Class of committed instruction
system.cpu0.commit.op_class_0::SimdCmp              0      0.00%     80.64% # Class of committed instruction
system.cpu0.commit.op_class_0::SimdCvt              0      0.00%     80.64% # Class of committed instruction
system.cpu0.commit.op_class_0::SimdMisc             0      0.00%     80.64% # Class of committed instruction
system.cpu0.commit.op_class_0::SimdMult             0      0.00%     80.64% # Class of committed instruction
system.cpu0.commit.op_class_0::SimdMultAcc            0      0.00%     80.64% # Class of committed instruction
system.cpu0.commit.op_class_0::SimdShift            0      0.00%     80.64% # Class of committed instruction
system.cpu0.commit.op_class_0::SimdShiftAcc            0      0.00%     80.64% # Class of committed instruction
system.cpu0.commit.op_class_0::SimdSqrt             0      0.00%     80.64% # Class of committed instruction
system.cpu0.commit.op_class_0::SimdFloatAdd            0      0.00%     80.64% # Class of committed instruction
system.cpu0.commit.op_class_0::SimdFloatAlu            0      0.00%     80.64% # Class of committed instruction
system.cpu0.commit.op_class_0::SimdFloatCmp            0      0.00%     80.64% # Class of committed instruction
system.cpu0.commit.op_class_0::SimdFloatCvt            0      0.00%     80.64% # Class of committed instruction
system.cpu0.commit.op_class_0::SimdFloatDiv            0      0.00%     80.64% # Class of committed instruction
system.cpu0.commit.op_class_0::SimdFloatMisc            0      0.00%     80.64% # Class of committed instruction
system.cpu0.commit.op_class_0::SimdFloatMult            0      0.00%     80.64% # Class of committed instruction
system.cpu0.commit.op_class_0::SimdFloatMultAcc            0      0.00%     80.64% # Class of committed instruction
system.cpu0.commit.op_class_0::SimdFloatSqrt            0      0.00%     80.64% # Class of committed instruction
system.cpu0.commit.op_class_0::MemRead        1189622     17.53%     98.16% # Class of committed instruction
system.cpu0.commit.op_class_0::MemWrite        117779      1.74%     99.90% # Class of committed instruction
system.cpu0.commit.op_class_0::FloatMemRead         6812      0.10%    100.00% # Class of committed instruction
system.cpu0.commit.op_class_0::FloatMemWrite            0      0.00%    100.00% # Class of committed instruction
system.cpu0.commit.op_class_0::IprAccess            0      0.00%    100.00% # Class of committed instruction
system.cpu0.commit.op_class_0::InstPrefetch            0      0.00%    100.00% # Class of committed instruction
system.cpu0.commit.op_class_0::total          6787722                       # Class of committed instruction
system.cpu0.commit.bw_lim_events               162963                       # number cycles where commit BW limit reached
system.cpu0.rob.rob_reads                    46059637                       # The number of ROB reads
system.cpu0.rob.rob_writes                   35970183                       # The number of ROB writes
system.cpu0.timesIdled                            619                       # Number of times that the entire CPU went into an idle state and unscheduled itself
system.cpu0.idleCycles                          52625                       # Total number of cycles that the CPU has spent unscheduled due to idling
system.cpu0.committedInsts                    3398781                       # Number of Instructions Simulated
system.cpu0.committedOps                      6787722                       # Number of Ops (including micro ops) Simulated
system.cpu0.cpi                              8.984012                       # CPI: Cycles Per Instruction
system.cpu0.cpi_total                        8.984012                       # CPI: Total CPI of All Threads
system.cpu0.ipc                              0.111309                       # IPC: Instructions Per Cycle
system.cpu0.ipc_total                        0.111309                       # IPC: Total IPC of All Threads
system.cpu0.int_regfile_reads                13047766                       # number of integer regfile reads
system.cpu0.int_regfile_writes               10464844                       # number of integer regfile writes
system.cpu0.fp_regfile_reads                   101234                       # number of floating regfile reads
system.cpu0.fp_regfile_writes                   50623                       # number of floating regfile writes
system.cpu0.cc_regfile_reads                  7713032                       # number of cc regfile reads
system.cpu0.cc_regfile_writes                 3430498                       # number of cc regfile writes
system.cpu0.misc_regfile_reads                6305033                       # number of misc regfile reads
system.cpu0.dcache.tags.pwrStateResidencyTicks::UNDEFINED  15267344125                       # Cumulative time (in ticks) in various power states
system.cpu0.dcache.tags.replacements           566389                       # number of replacements
system.cpu0.dcache.tags.tagsinuse                1024                       # Cycle average of tags in use
system.cpu0.dcache.tags.total_refs             971360                       # Total number of references to valid blocks.
system.cpu0.dcache.tags.sampled_refs           566389                       # Sample count of references to valid blocks.
system.cpu0.dcache.tags.avg_refs             1.715005                       # Average number of references to valid blocks.
system.cpu0.dcache.tags.warmup_cycle                0                       # Cycle when the warmup percentage was hit.
system.cpu0.dcache.tags.occ_blocks::cpu0.data         1024                       # Average occupied blocks per requestor
system.cpu0.dcache.tags.occ_percent::cpu0.data            1                       # Average percentage of cache occupancy
system.cpu0.dcache.tags.occ_percent::total            1                       # Average percentage of cache occupancy
system.cpu0.dcache.tags.occ_task_id_blocks::1024         1024                       # Occupied blocks per task id
system.cpu0.dcache.tags.age_task_id_blocks_1024::0          151                       # Occupied blocks per task id
system.cpu0.dcache.tags.age_task_id_blocks_1024::1          805                       # Occupied blocks per task id
system.cpu0.dcache.tags.age_task_id_blocks_1024::2           68                       # Occupied blocks per task id
system.cpu0.dcache.tags.occ_task_id_percent::1024            1                       # Percentage of cache occupancy per task id
system.cpu0.dcache.tags.tag_accesses          8327353                       # Number of tag accesses
system.cpu0.dcache.tags.data_accesses         8327353                       # Number of data accesses
system.cpu0.dcache.pwrStateResidencyTicks::UNDEFINED  15267344125                       # Cumulative time (in ticks) in various power states
system.cpu0.dcache.ReadReq_hits::cpu0.data       850453                       # number of ReadReq hits
system.cpu0.dcache.ReadReq_hits::total         850453                       # number of ReadReq hits
system.cpu0.dcache.WriteReq_hits::cpu0.data       115392                       # number of WriteReq hits
system.cpu0.dcache.WriteReq_hits::total        115392                       # number of WriteReq hits
system.cpu0.dcache.demand_hits::cpu0.data       965845                       # number of demand (read+write) hits
system.cpu0.dcache.demand_hits::total          965845                       # number of demand (read+write) hits
system.cpu0.dcache.overall_hits::cpu0.data       965845                       # number of overall hits
system.cpu0.dcache.overall_hits::total         965845                       # number of overall hits
system.cpu0.dcache.ReadReq_misses::cpu0.data       972009                       # number of ReadReq misses
system.cpu0.dcache.ReadReq_misses::total       972009                       # number of ReadReq misses
system.cpu0.dcache.WriteReq_misses::cpu0.data         2387                       # number of WriteReq misses
system.cpu0.dcache.WriteReq_misses::total         2387                       # number of WriteReq misses
system.cpu0.dcache.demand_misses::cpu0.data       974396                       # number of demand (read+write) misses
system.cpu0.dcache.demand_misses::total        974396                       # number of demand (read+write) misses
system.cpu0.dcache.overall_misses::cpu0.data       974396                       # number of overall misses
system.cpu0.dcache.overall_misses::total       974396                       # number of overall misses
system.cpu0.dcache.ReadReq_miss_latency::cpu0.data  32476735500                       # number of ReadReq miss cycles
system.cpu0.dcache.ReadReq_miss_latency::total  32476735500                       # number of ReadReq miss cycles
system.cpu0.dcache.WriteReq_miss_latency::cpu0.data    133505500                       # number of WriteReq miss cycles
system.cpu0.dcache.WriteReq_miss_latency::total    133505500                       # number of WriteReq miss cycles
system.cpu0.dcache.demand_miss_latency::cpu0.data  32610241000                       # number of demand (read+write) miss cycles
system.cpu0.dcache.demand_miss_latency::total  32610241000                       # number of demand (read+write) miss cycles
system.cpu0.dcache.overall_miss_latency::cpu0.data  32610241000                       # number of overall miss cycles
system.cpu0.dcache.overall_miss_latency::total  32610241000                       # number of overall miss cycles
system.cpu0.dcache.ReadReq_accesses::cpu0.data      1822462                       # number of ReadReq accesses(hits+misses)
system.cpu0.dcache.ReadReq_accesses::total      1822462                       # number of ReadReq accesses(hits+misses)
[...]
system.l2.ReadExReq_miss_rate::cpu0.data     0.477561                       # miss rate for ReadExReq accesses
system.l2.ReadExReq_miss_rate::total         0.477561                       # miss rate for ReadExReq accesses
system.l2.ReadCleanReq_miss_rate::cpu0.inst     0.600000                       # miss rate for ReadCleanReq accesses
system.l2.ReadCleanReq_miss_rate::total      0.600000                       # miss rate for ReadCleanReq accesses
system.l2.ReadSharedReq_miss_rate::cpu0.data     0.221858                       # miss rate for ReadSharedReq accesses
system.l2.ReadSharedReq_miss_rate::total     0.221858                       # miss rate for ReadSharedReq accesses
system.l2.demand_miss_rate::cpu0.inst        0.600000                       # miss rate for demand accesses
system.l2.demand_miss_rate::cpu0.data        0.222925                       # miss rate for demand accesses
system.l2.demand_miss_rate::total            0.222928                       # miss rate for demand accesses
system.l2.overall_miss_rate::cpu0.inst       0.600000                       # miss rate for overall accesses
system.l2.overall_miss_rate::cpu0.data       0.222925                       # miss rate for overall accesses
system.l2.overall_miss_rate::total           0.222928                       # miss rate for overall accesses
system.l2.ReadExReq_avg_miss_latency::cpu0.data 99497.340426                       # average ReadExReq miss latency
system.l2.ReadExReq_avg_miss_latency::total 99497.340426                       # average ReadExReq miss latency
system.l2.ReadCleanReq_avg_miss_latency::cpu0.inst 92666.666667                       # average ReadCleanReq miss latency
system.l2.ReadCleanReq_avg_miss_latency::total 92666.666667                       # average ReadCleanReq miss latency
system.l2.ReadSharedReq_avg_miss_latency::cpu0.data 96703.230137                       # average ReadSharedReq miss latency
system.l2.ReadSharedReq_avg_miss_latency::total 96703.230137                       # average ReadSharedReq miss latency
system.l2.demand_avg_miss_latency::cpu0.inst 92666.666667                       # average overall miss latency
system.l2.demand_avg_miss_latency::cpu0.data 96728.192172                       # average overall miss latency
system.l2.demand_avg_miss_latency::total 96728.095672                       # average overall miss latency
system.l2.overall_avg_miss_latency::cpu0.inst 92666.666667                       # average overall miss latency
system.l2.overall_avg_miss_latency::cpu0.data 96728.192172                       # average overall miss latency
system.l2.overall_avg_miss_latency::total 96728.095672                       # average overall miss latency
system.l2.blocked_cycles::no_mshrs                  0                       # number of cycles access was blocked
system.l2.blocked_cycles::no_targets                0                       # number of cycles access was blocked
system.l2.blocked::no_mshrs                         0                       # number of cycles access was blocked
system.l2.blocked::no_targets                       0                       # number of cycles access was blocked
system.l2.avg_blocked_cycles::no_mshrs            nan                       # average number of cycles each access was blocked
system.l2.avg_blocked_cycles::no_targets          nan                       # average number of cycles each access was blocked
system.l2.writebacks::writebacks                 1271                       # number of writebacks
system.l2.writebacks::total                      1271                       # number of writebacks
system.l2.ReadExReq_mshr_misses::cpu0.data         1128                       # number of ReadExReq MSHR misses
system.l2.ReadExReq_mshr_misses::total           1128                       # number of ReadExReq MSHR misses
system.l2.ReadCleanReq_mshr_misses::cpu0.inst            3                       # number of ReadCleanReq MSHR misses
system.l2.ReadCleanReq_mshr_misses::total            3                       # number of ReadCleanReq MSHR misses
system.l2.ReadSharedReq_mshr_misses::cpu0.data       125134                       # number of ReadSharedReq MSHR misses
system.l2.ReadSharedReq_mshr_misses::total       125134                       # number of ReadSharedReq MSHR misses
system.l2.demand_mshr_misses::cpu0.inst             3                       # number of demand (read+write) MSHR misses
system.l2.demand_mshr_misses::cpu0.data        126262                       # number of demand (read+write) MSHR misses
system.l2.demand_mshr_misses::total            126265                       # number of demand (read+write) MSHR misses
system.l2.overall_mshr_misses::cpu0.inst            3                       # number of overall MSHR misses
system.l2.overall_mshr_misses::cpu0.data       126262                       # number of overall MSHR misses
system.l2.overall_mshr_misses::total           126265                       # number of overall MSHR misses
system.l2.ReadExReq_mshr_miss_latency::cpu0.data    100953000                       # number of ReadExReq MSHR miss cycles
system.l2.ReadExReq_mshr_miss_latency::total    100953000                       # number of ReadExReq MSHR miss cycles
system.l2.ReadCleanReq_mshr_miss_latency::cpu0.inst       248000                       # number of ReadCleanReq MSHR miss cycles
system.l2.ReadCleanReq_mshr_miss_latency::total       248000                       # number of ReadCleanReq MSHR miss cycles
system.l2.ReadSharedReq_mshr_miss_latency::cpu0.data  10849532000                       # number of ReadSharedReq MSHR miss cycles
system.l2.ReadSharedReq_mshr_miss_latency::total  10849532000                       # number of ReadSharedReq MSHR miss cycles
system.l2.demand_mshr_miss_latency::cpu0.inst       248000                       # number of demand (read+write) MSHR miss cycles
system.l2.demand_mshr_miss_latency::cpu0.data  10950485000                       # number of demand (read+write) MSHR miss cycles
system.l2.demand_mshr_miss_latency::total  10950733000                       # number of demand (read+write) MSHR miss cycles
system.l2.overall_mshr_miss_latency::cpu0.inst       248000                       # number of overall MSHR miss cycles
system.l2.overall_mshr_miss_latency::cpu0.data  10950485000                       # number of overall MSHR miss cycles
system.l2.overall_mshr_miss_latency::total  10950733000                       # number of overall MSHR miss cycles
system.l2.ReadExReq_mshr_miss_rate::cpu0.data     0.477561                       # mshr miss rate for ReadExReq accesses
system.l2.ReadExReq_mshr_miss_rate::total     0.477561                       # mshr miss rate for ReadExReq accesses
system.l2.ReadCleanReq_mshr_miss_rate::cpu0.inst     0.600000                       # mshr miss rate for ReadCleanReq accesses
system.l2.ReadCleanReq_mshr_miss_rate::total     0.600000                       # mshr miss rate for ReadCleanReq accesses
system.l2.ReadSharedReq_mshr_miss_rate::cpu0.data     0.221858                       # mshr miss rate for ReadSharedReq accesses
system.l2.ReadSharedReq_mshr_miss_rate::total     0.221858                       # mshr miss rate for ReadSharedReq accesses
system.l2.demand_mshr_miss_rate::cpu0.inst     0.600000                       # mshr miss rate for demand accesses
system.l2.demand_mshr_miss_rate::cpu0.data     0.222925                       # mshr miss rate for demand accesses
system.l2.demand_mshr_miss_rate::total       0.222928                       # mshr miss rate for demand accesses
system.l2.overall_mshr_miss_rate::cpu0.inst     0.600000                       # mshr miss rate for overall accesses
system.l2.overall_mshr_miss_rate::cpu0.data     0.222925                       # mshr miss rate for overall accesses
system.l2.overall_mshr_miss_rate::total      0.222928                       # mshr miss rate for overall accesses
system.l2.ReadExReq_avg_mshr_miss_latency::cpu0.data 89497.340426                       # average ReadExReq mshr miss latency
system.l2.ReadExReq_avg_mshr_miss_latency::total 89497.340426                       # average ReadExReq mshr miss latency
system.l2.ReadCleanReq_avg_mshr_miss_latency::cpu0.inst 82666.666667                       # average ReadCleanReq mshr miss latency
system.l2.ReadCleanReq_avg_mshr_miss_latency::total 82666.666667                       # average ReadCleanReq mshr miss latency
system.l2.ReadSharedReq_avg_mshr_miss_latency::cpu0.data 86703.310052                       # average ReadSharedReq mshr miss latency
system.l2.ReadSharedReq_avg_mshr_miss_latency::total 86703.310052                       # average ReadSharedReq mshr miss latency
system.l2.demand_avg_mshr_miss_latency::cpu0.inst 82666.666667                       # average overall mshr miss latency
system.l2.demand_avg_mshr_miss_latency::cpu0.data 86728.271372                       # average overall mshr miss latency
system.l2.demand_avg_mshr_miss_latency::total 86728.174870                       # average overall mshr miss latency
system.l2.overall_avg_mshr_miss_latency::cpu0.inst 82666.666667                       # average overall mshr miss latency
system.l2.overall_avg_mshr_miss_latency::cpu0.data 86728.271372                       # average overall mshr miss latency
system.l2.overall_avg_mshr_miss_latency::total 86728.174870                       # average overall mshr miss latency
system.membus.snoop_filter.tot_requests        252530                       # Total number of requests made to the snoop filter.
system.membus.snoop_filter.hit_single_requests       126266                       # Number of requests hitting in the snoop filter with a single holder of the requested data.
system.membus.snoop_filter.hit_multi_requests            0                       # Number of requests hitting in the snoop filter with multiple (>1) holders of the requested data.
system.membus.snoop_filter.tot_snoops               0                       # Total number of snoops made to the snoop filter.
system.membus.snoop_filter.hit_single_snoops            0                       # Number of snoops hitting in the snoop filter with a single holder of the requested data.
system.membus.snoop_filter.hit_multi_snoops            0                       # Number of snoops hitting in the snoop filter with multiple (>1) holders of the requested data.
system.membus.pwrStateResidencyTicks::UNDEFINED  15267344125                       # Cumulative time (in ticks) in various power states
system.membus.trans_dist::ReadResp             125136                       # Transaction distribution
system.membus.trans_dist::WritebackDirty         1271                       # Transaction distribution
system.membus.trans_dist::CleanEvict           124994                       # Transaction distribution
system.membus.trans_dist::ReadExReq              1128                       # Transaction distribution
system.membus.trans_dist::ReadExResp             1128                       # Transaction distribution
system.membus.trans_dist::ReadSharedReq        125137                       # Transaction distribution
system.membus.pkt_count_system.l2.mem_side::system.mem_ctrls.port       378794                       # Packet count per connected master and slave (bytes)
system.membus.pkt_count_system.l2.mem_side::total       378794                       # Packet count per connected master and slave (bytes)
system.membus.pkt_count::total                 378794                       # Packet count per connected master and slave (bytes)
system.membus.pkt_size_system.l2.mem_side::system.mem_ctrls.port      8162240                       # Cumulative packet size per connected master and slave (bytes)
system.membus.pkt_size_system.l2.mem_side::total      8162240                       # Cumulative packet size per connected master and slave (bytes)
system.membus.pkt_size::total                 8162240                       # Cumulative packet size per connected master and slave (bytes)
system.membus.snoops                                0                       # Total snoops (count)
system.membus.snoopTraffic                          0                       # Total snoop traffic (bytes)
system.membus.snoop_fanout::samples            126265                       # Request fanout histogram
system.membus.snoop_fanout::mean                    0                       # Request fanout histogram
system.membus.snoop_fanout::stdev                   0                       # Request fanout histogram
system.membus.snoop_fanout::underflows              0      0.00%      0.00% # Request fanout histogram
system.membus.snoop_fanout::0                  126265    100.00%    100.00% # Request fanout histogram
system.membus.snoop_fanout::1                       0      0.00%    100.00% # Request fanout histogram
system.membus.snoop_fanout::overflows               0      0.00%    100.00% # Request fanout histogram
system.membus.snoop_fanout::min_value               0                       # Request fanout histogram
system.membus.snoop_fanout::max_value               0                       # Request fanout histogram
system.membus.snoop_fanout::total              126265                       # Request fanout histogram
system.membus.reqLayer8.occupancy           296526000                       # Layer occupancy (ticks)
system.membus.reqLayer8.utilization               1.9                       # Layer utilization (%)
system.membus.respLayer1.occupancy          690618500                       # Layer occupancy (ticks)
system.membus.respLayer1.utilization              4.5                       # Layer utilization (%)
system.tol2bus.snoop_filter.tot_requests      1132788                       # Total number of requests made to the snoop filter.
system.tol2bus.snoop_filter.hit_single_requests       566394                       # Number of requests hitting in the snoop filter with a single holder of the requested data.
system.tol2bus.snoop_filter.hit_multi_requests          412                       # Number of requests hitting in the snoop filter with multiple (>1) holders of the requested data.
system.tol2bus.snoop_filter.tot_snoops              4                       # Total number of snoops made to the snoop filter.
system.tol2bus.snoop_filter.hit_single_snoops            4                       # Number of snoops hitting in the snoop filter with a single holder of the requested data.
system.tol2bus.snoop_filter.hit_multi_snoops            0                       # Number of snoops hitting in the snoop filter with multiple (>1) holders of the requested data.
system.tol2bus.pwrStateResidencyTicks::UNDEFINED  15267344125                       # Cumulative time (in ticks) in various power states
system.tol2bus.trans_dist::ReadResp            564032                       # Transaction distribution
system.tol2bus.trans_dist::WritebackDirty        10353                       # Transaction distribution
system.tol2bus.trans_dist::WritebackClean            5                       # Transaction distribution
system.tol2bus.trans_dist::CleanEvict          682304                       # Transaction distribution
system.tol2bus.trans_dist::ReadExReq             2362                       # Transaction distribution
system.tol2bus.trans_dist::ReadExResp            2362                       # Transaction distribution
system.tol2bus.trans_dist::ReadCleanReq             5                       # Transaction distribution
system.tol2bus.trans_dist::ReadSharedReq       564027                       # Transaction distribution
system.tol2bus.pkt_count_system.cpu0.icache.mem_side::system.l2.cpu_side           15                       # Packet count per connected master and slave (bytes)
system.tol2bus.pkt_count_system.cpu0.dcache.mem_side::system.l2.cpu_side      1699167                       # Packet count per connected master and slave (bytes)
system.tol2bus.pkt_count::total               1699182                       # Packet count per connected master and slave (bytes)
system.tol2bus.pkt_size_system.cpu0.icache.mem_side::system.l2.cpu_side          640                       # Cumulative packet size per connected master and slave (bytes)
system.tol2bus.pkt_size_system.cpu0.dcache.mem_side::system.l2.cpu_side     36830144                       # Cumulative packet size per connected master and slave (bytes)
system.tol2bus.pkt_size::total               36830784                       # Cumulative packet size per connected master and slave (bytes)
system.tol2bus.snoops                          126268                       # Total snoops (count)
system.tol2bus.snoopTraffic                     81344                       # Total snoop traffic (bytes)
system.tol2bus.snoop_fanout::samples           692662                       # Request fanout histogram
system.tol2bus.snoop_fanout::mean            0.000601                       # Request fanout histogram
system.tol2bus.snoop_fanout::stdev           0.024499                       # Request fanout histogram
system.tol2bus.snoop_fanout::underflows             0      0.00%      0.00% # Request fanout histogram
system.tol2bus.snoop_fanout::0                 692246     99.94%     99.94% # Request fanout histogram
system.tol2bus.snoop_fanout::1                    416      0.06%    100.00% # Request fanout histogram
system.tol2bus.snoop_fanout::2                      0      0.00%    100.00% # Request fanout histogram
system.tol2bus.snoop_fanout::3                      0      0.00%    100.00% # Request fanout histogram
system.tol2bus.snoop_fanout::4                      0      0.00%    100.00% # Request fanout histogram
system.tol2bus.snoop_fanout::5                      0      0.00%    100.00% # Request fanout histogram
system.tol2bus.snoop_fanout::6                      0      0.00%    100.00% # Request fanout histogram
system.tol2bus.snoop_fanout::7                      0      0.00%    100.00% # Request fanout histogram
system.tol2bus.snoop_fanout::8                      0      0.00%    100.00% # Request fanout histogram
system.tol2bus.snoop_fanout::9                      0      0.00%    100.00% # Request fanout histogram
system.tol2bus.snoop_fanout::10                     0      0.00%    100.00% # Request fanout histogram
system.tol2bus.snoop_fanout::11                     0      0.00%    100.00% # Request fanout histogram
system.tol2bus.snoop_fanout::12                     0      0.00%    100.00% # Request fanout histogram
system.tol2bus.snoop_fanout::13                     0      0.00%    100.00% # Request fanout histogram
system.tol2bus.snoop_fanout::14                     0      0.00%    100.00% # Request fanout histogram
system.tol2bus.snoop_fanout::15                     0      0.00%    100.00% # Request fanout histogram
system.tol2bus.snoop_fanout::16                     0      0.00%    100.00% # Request fanout histogram
system.tol2bus.snoop_fanout::overflows              0      0.00%    100.00% # Request fanout histogram
system.tol2bus.snoop_fanout::min_value              0                       # Request fanout histogram
system.tol2bus.snoop_fanout::max_value              1                       # Request fanout histogram
system.tol2bus.snoop_fanout::total             692662                       # Request fanout histogram
system.tol2bus.reqLayer0.occupancy          575481000                       # Layer occupancy (ticks)
system.tol2bus.reqLayer0.utilization              3.8                       # Layer utilization (%)
system.tol2bus.respLayer0.occupancy              7500                       # Layer occupancy (ticks)
system.tol2bus.respLayer0.utilization             0.0                       # Layer utilization (%)
system.tol2bus.respLayer1.occupancy         849583500                       # Layer occupancy (ticks)
system.tol2bus.respLayer1.utilization             5.6                       # Layer utilization (%)

---------- End Simulation Statistics   ----------
