
---------- Begin Simulation Statistics ----------
sim_seconds                                  0.015267                       # Number of seconds simulated
sim_ticks                                 15267344125                       # Number of ticks simulated
final_tick                               6152739682375                       # Number of ticks from beginning of simulation (restored from checkpoints and never reset)
sim_freq                                 1000000000000                       # Frequency of simulated ticks
host_inst_rate                               82571082                       # Simulator instruction rate (inst/s)
host_op_rate                                153426933                       # Simulator op (including micro ops) rate (op/s)
host_tick_rate                              217927255                       # Simulator tick rate (ticks/s)
host_mem_usage                                1248940                       # Number of bytes of host memory used
host_seconds                                    70.06                       # Real time elapsed on the host
sim_insts                                  5784686388                       # Number of instructions simulated
sim_ops                                   10748639544                       # Number of ops (including micro ops) simulated
system.voltage_domain.voltage                       1                       # Voltage in Volts
system.clk_domain.clock                          1000                       # Clock period in ticks
system.mem_ctrls.pwrStateResidencyTicks::UNDEFINED  15267344125                       # Cumulative time (in ticks) in various power states
system.mem_ctrls.bytes_read::cpu0.inst             64                       # Number of bytes read from this memory
system.mem_ctrls.bytes_read::cpu0.data       12508800                       # Number of bytes read from this memory
system.mem_ctrls.bytes_read::total           12508864                       # Number of bytes read from this memory
system.mem_ctrls.bytes_inst_read::cpu0.inst           64                       # Number of instructions bytes read from this memory
system.mem_ctrls.bytes_inst_read::total            64                       # Number of instructions bytes read from this memory
system.mem_ctrls.bytes_written::writebacks        26048                       # Number of bytes written to this memory
system.mem_ctrls.bytes_written::total           26048                       # Number of bytes written to this memory
system.mem_ctrls.num_reads::cpu0.inst               1                       # Number of read requests responded to by this memory
system.mem_ctrls.num_reads::cpu0.data          195450                       # Number of read requests responded to by this memory
system.mem_ctrls.num_reads::total              195451                       # Number of read requests responded to by this memory
system.mem_ctrls.num_writes::writebacks           407                       # Number of write requests responded to by this memory
system.mem_ctrls.num_writes::total                407                       # Number of write requests responded to by this memory
system.mem_ctrls.bw_read::cpu0.inst              4192                       # Total read bandwidth from this memory (bytes/s)
system.mem_ctrls.bw_read::cpu0.data         819317355                       # Total read bandwidth from this memory (bytes/s)
system.mem_ctrls.bw_read::total             819321547                       # Total read bandwidth from this memory (bytes/s)
system.mem_ctrls.bw_inst_read::cpu0.inst         4192                       # Instruction read bandwidth from this memory (bytes/s)
system.mem_ctrls.bw_inst_read::total             4192                       # Instruction read bandwidth from this memory (bytes/s)
system.mem_ctrls.bw_write::writebacks         1706125                       # Write bandwidth from this memory (bytes/s)
system.mem_ctrls.bw_write::total              1706125                       # Write bandwidth from this memory (bytes/s)
system.mem_ctrls.bw_total::writebacks         1706125                       # Total bandwidth to/from this memory (bytes/s)
system.mem_ctrls.bw_total::cpu0.inst             4192                       # Total bandwidth to/from this memory (bytes/s)
system.mem_ctrls.bw_total::cpu0.data        819317355                       # Total bandwidth to/from this memory (bytes/s)
system.mem_ctrls.bw_total::total            821027672                       # Total bandwidth to/from this memory (bytes/s)
system.mem_ctrls.readReqs                      195453                       # Number of read requests accepted
system.mem_ctrls.writeReqs                        407                       # Number of write requests accepted
system.mem_ctrls.readBursts                    195453                       # Number of DRAM read bursts, including those serviced by the write queue
system.mem_ctrls.writeBursts                      407                       # Number of DRAM write bursts, including those merged in the write queue
system.mem_ctrls.bytesReadDRAM               12504896                       # Total number of bytes read from DRAM
system.mem_ctrls.bytesReadWrQ                    4096                       # Total number of bytes read from write queue
system.mem_ctrls.bytesWritten                   25600                       # Total number of bytes written to DRAM
system.mem_ctrls.bytesReadSys                12508992                       # Total read bytes from the system interface side
system.mem_ctrls.bytesWrittenSys                26048                       # Total written bytes from the system interface side
system.mem_ctrls.servicedByWrQ                     64                       # Number of DRAM read bursts serviced by the write queue
system.mem_ctrls.mergedWrBursts                     1                       # Number of DRAM write bursts merged with an existing one
system.mem_ctrls.neitherReadNorWriteReqs            0                       # Number of requests that are neither read nor write
system.mem_ctrls.perBankRdBursts::0             12053                       # Per bank write bursts
system.mem_ctrls.perBankRdBursts::1             11823                       # Per bank write bursts
system.mem_ctrls.perBankRdBursts::2             11758                       # Per bank write bursts
system.mem_ctrls.perBankRdBursts::3             12544                       # Per bank write bursts
system.mem_ctrls.perBankRdBursts::4             12781                       # Per bank write bursts
system.mem_ctrls.perBankRdBursts::5             12671                       # Per bank write bursts
system.mem_ctrls.perBankRdBursts::6             12721                       # Per bank write bursts
system.mem_ctrls.perBankRdBursts::7             12554                       # Per bank write bursts
system.mem_ctrls.perBankRdBursts::8             12225                       # Per bank write bursts
system.mem_ctrls.perBankRdBursts::9             12034                       # Per bank write bursts
system.mem_ctrls.perBankRdBursts::10            11999                       # Per bank write bursts
system.mem_ctrls.perBankRdBursts::11            11895                       # Per bank write bursts
system.mem_ctrls.perBankRdBursts::12            11846                       # Per bank write bursts
system.mem_ctrls.perBankRdBursts::13            12212                       # Per bank write bursts
system.mem_ctrls.perBankRdBursts::14            12199                       # Per bank write bursts
system.mem_ctrls.perBankRdBursts::15            12074                       # Per bank write bursts
system.mem_ctrls.perBankWrBursts::0                 0                       # Per bank write bursts
system.mem_ctrls.perBankWrBursts::1                 0                       # Per bank write bursts
system.mem_ctrls.perBankWrBursts::2                 0                       # Per bank write bursts
system.mem_ctrls.perBankWrBursts::3               115                       # Per bank write bursts
system.mem_ctrls.perBankWrBursts::4                17                       # Per bank write bursts
system.mem_ctrls.perBankWrBursts::5                 0                       # Per bank write bursts
system.mem_ctrls.perBankWrBursts::6                76                       # Per bank write bursts
system.mem_ctrls.perBankWrBursts::7               128                       # Per bank write bursts
system.mem_ctrls.perBankWrBursts::8                52                       # Per bank write bursts
system.mem_ctrls.perBankWrBursts::9                 0                       # Per bank write bursts
system.mem_ctrls.perBankWrBursts::10                0                       # Per bank write bursts
system.mem_ctrls.perBankWrBursts::11               12                       # Per bank write bursts
system.mem_ctrls.perBankWrBursts::12                0                       # Per bank write bursts
system.mem_ctrls.perBankWrBursts::13                0                       # Per bank write bursts
system.mem_ctrls.perBankWrBursts::14                0                       # Per bank write bursts
system.mem_ctrls.perBankWrBursts::15                0                       # Per bank write bursts
system.mem_ctrls.numRdRetry                         0                       # Number of times read queue was full causing retry
system.mem_ctrls.numWrRetry                         0                       # Number of times write queue was full causing retry
system.mem_ctrls.totGap                   15267373500                       # Total gap between requests
system.mem_ctrls.readPktSize::0                     0                       # Read request sizes (log2)
system.mem_ctrls.readPktSize::1                     0                       # Read request sizes (log2)
system.mem_ctrls.readPktSize::2                     0                       # Read request sizes (log2)
system.mem_ctrls.readPktSize::3                     0                       # Read request sizes (log2)
system.mem_ctrls.readPktSize::4                     0                       # Read request sizes (log2)
system.mem_ctrls.readPktSize::5                     0                       # Read request sizes (log2)
system.mem_ctrls.readPktSize::6                195453                       # Read request sizes (log2)
system.mem_ctrls.writePktSize::0                    0                       # Write request sizes (log2)
system.mem_ctrls.writePktSize::1                    0                       # Write request sizes (log2)
system.mem_ctrls.writePktSize::2                    0                       # Write request sizes (log2)
system.mem_ctrls.writePktSize::3                    0                       # Write request sizes (log2)
system.mem_ctrls.writePktSize::4                    0                       # Write request sizes (log2)
system.mem_ctrls.writePktSize::5                    0                       # Write request sizes (log2)
system.mem_ctrls.writePktSize::6                  407                       # Write request sizes (log2)
system.mem_ctrls.rdQLenPdf::0                  147463                       # What read queue length does an incoming req see
system.mem_ctrls.rdQLenPdf::1                   44770                       # What read queue length does an incoming req see
system.mem_ctrls.rdQLenPdf::2                    3110                       # What read queue length does an incoming req see
system.mem_ctrls.rdQLenPdf::3                      46                       # What read queue length does an incoming req see
system.mem_ctrls.rdQLenPdf::4                       0                       # What read queue length does an incoming req see
system.mem_ctrls.rdQLenPdf::5                       0                       # What read queue length does an incoming req see
system.mem_ctrls.rdQLenPdf::6                       0                       # What read queue length does an incoming req see
system.mem_ctrls.rdQLenPdf::7                       0                       # What read queue length does an incoming req see
system.mem_ctrls.rdQLenPdf::8                       0                       # What read queue length does an incoming req see
system.mem_ctrls.rdQLenPdf::9                       0                       # What read queue length does an incoming req see
system.mem_ctrls.rdQLenPdf::10                      0                       # What read queue length does an incoming req see
system.mem_ctrls.rdQLenPdf::11                      0                       # What read queue length does an incoming req see
system.mem_ctrls.rdQLenPdf::12                      0                       # What read queue length does an incoming req see
system.mem_ctrls.rdQLenPdf::13                      0                       # What read queue length does an incoming req see
system.mem_ctrls.rdQLenPdf::14                      0                       # What read queue length does an incoming req see
system.mem_ctrls.rdQLenPdf::15                      0                       # What read queue length does an incoming req see
system.mem_ctrls.rdQLenPdf::16                      0                       # What read queue length does an incoming req see
system.mem_ctrls.rdQLenPdf::17                      0                       # What read queue length does an incoming req see
system.mem_ctrls.rdQLenPdf::18                      0                       # What read queue length does an incoming req see
system.mem_ctrls.rdQLenPdf::19                      0                       # What read queue length does an incoming req see
system.mem_ctrls.rdQLenPdf::20                      0                       # What read queue length does an incoming req see
system.mem_ctrls.rdQLenPdf::21                      0                       # What read queue length does an incoming req see
system.mem_ctrls.rdQLenPdf::22                      0                       # What read queue length does an incoming req see
system.mem_ctrls.rdQLenPdf::23                      0                       # What read queue length does an incoming req see
system.mem_ctrls.rdQLenPdf::24                      0                       # What read queue length does an incoming req see
system.mem_ctrls.rdQLenPdf::25                      0                       # What read queue length does an incoming req see
system.mem_ctrls.rdQLenPdf::26                      0                       # What read queue length does an incoming req see
system.mem_ctrls.rdQLenPdf::27                      0                       # What read queue length does an incoming req see
system.mem_ctrls.rdQLenPdf::28                      0                       # What read queue length does an incoming req see
system.mem_ctrls.rdQLenPdf::29                      0                       # What read queue length does an incoming req see
system.mem_ctrls.rdQLenPdf::30                      0                       # What read queue length does an incoming req see
system.mem_ctrls.rdQLenPdf::31                      0                       # What read queue length does an incoming req see
system.mem_ctrls.wrQLenPdf::0                       0                       # What write queue length does an incoming req see
system.mem_ctrls.wrQLenPdf::1                       0                       # What write queue length does an incoming req see
system.mem_ctrls.wrQLenPdf::2                       0                       # What write queue length does an incoming req see
system.mem_ctrls.wrQLenPdf::3                       0                       # What write queue length does an incoming req see
system.mem_ctrls.wrQLenPdf::4                       0                       # What write queue length does an incoming req see
system.mem_ctrls.wrQLenPdf::5                       0                       # What write queue length does an incoming req see
system.mem_ctrls.wrQLenPdf::6                       0                       # What write queue length does an incoming req see
system.mem_ctrls.wrQLenPdf::7                       0                       # What write queue length does an incoming req see
system.mem_ctrls.wrQLenPdf::8                       0                       # What write queue length does an incoming req see
system.mem_ctrls.wrQLenPdf::9                       0                       # What write queue length does an incoming req see
system.mem_ctrls.wrQLenPdf::10                      0                       # What write queue length does an incoming req see
system.mem_ctrls.wrQLenPdf::11                      0                       # What write queue length does an incoming req see
system.mem_ctrls.wrQLenPdf::12                      0                       # What write queue length does an incoming req see
system.mem_ctrls.wrQLenPdf::13                      0                       # What write queue length does an incoming req see
system.mem_ctrls.wrQLenPdf::14                      0                       # What write queue length does an incoming req see
system.mem_ctrls.wrQLenPdf::15                      0                       # What write queue length does an incoming req see
system.mem_ctrls.wrQLenPdf::16                      0                       # What write queue length does an incoming req see
system.mem_ctrls.wrQLenPdf::17                     25                       # What write queue length does an incoming req see
system.mem_ctrls.wrQLenPdf::18                     26                       # What write queue length does an incoming req see
system.mem_ctrls.wrQLenPdf::19                     26                       # What write queue length does an incoming req see
system.mem_ctrls.wrQLenPdf::20                     26                       # What write queue length does an incoming req see
system.mem_ctrls.wrQLenPdf::21                     26                       # What write queue length does an incoming req see
system.mem_ctrls.wrQLenPdf::22                     26                       # What write queue length does an incoming req see
system.mem_ctrls.wrQLenPdf::23                     26                       # What write queue length does an incoming req see
system.mem_ctrls.wrQLenPdf::24                     25                       # What write queue length does an incoming req see
system.mem_ctrls.wrQLenPdf::25                     25                       # What write queue length does an incoming req see
system.mem_ctrls.wrQLenPdf::26                     25                       # What write queue length does an incoming req see
system.mem_ctrls.wrQLenPdf::27                     25                       # What write queue length does an incoming req see
system.mem_ctrls.wrQLenPdf::28                     25                       # What write queue length does an incoming req see
system.mem_ctrls.wrQLenPdf::29                     25                       # What write queue length does an incoming req see
system.mem_ctrls.wrQLenPdf::30                     25                       # What write queue length does an incoming req see
system.mem_ctrls.wrQLenPdf::31                     25                       # What write queue length does an incoming req see
system.mem_ctrls.wrQLenPdf::32                     25                       # What write queue length does an incoming req see
system.mem_ctrls.wrQLenPdf::33                      0                       # What write queue length does an incoming req see
system.mem_ctrls.wrQLenPdf::34                      0                       # What write queue length does an incoming req see
system.mem_ctrls.wrQLenPdf::35                      0                       # What write queue length does an incoming req see
system.mem_ctrls.wrQLenPdf::36                      0                       # What write queue length does an incoming req see
system.mem_ctrls.wrQLenPdf::37                      0                       # What write queue length does an incoming req see
system.mem_ctrls.wrQLenPdf::38                      0                       # What write queue length does an incoming req see
system.mem_ctrls.wrQLenPdf::39                      0                       # What write queue length does an incoming req see
system.mem_ctrls.wrQLenPdf::40                      0                       # What write queue length does an incoming req see
system.mem_ctrls.wrQLenPdf::41                      0                       # What write queue length does an incoming req see
system.mem_ctrls.wrQLenPdf::42                      0                       # What write queue length does an incoming req see
system.mem_ctrls.wrQLenPdf::43                      0                       # What write queue length does an incoming req see
system.mem_ctrls.wrQLenPdf::44                      0                       # What write queue length does an incoming req see
system.mem_ctrls.wrQLenPdf::45                      0                       # What write queue length does an incoming req see
system.mem_ctrls.wrQLenPdf::46                      0                       # What write queue length does an incoming req see
system.mem_ctrls.wrQLenPdf::47                      0                       # What write queue length does an incoming req see
system.mem_ctrls.wrQLenPdf::48                      0                       # What write queue length does an incoming req see
system.mem_ctrls.wrQLenPdf::49                      0                       # What write queue length does an incoming req see
system.mem_ctrls.wrQLenPdf::50                      0                       # What write queue length does an incoming req see
system.mem_ctrls.wrQLenPdf::51                      0                       # What write queue length does an incoming req see
system.mem_ctrls.wrQLenPdf::52                      0                       # What write queue length does an incoming req see
system.mem_ctrls.wrQLenPdf::53                      0                       # What write queue length does an incoming req see
system.mem_ctrls.wrQLenPdf::54                      0                       # What write queue length does an incoming req see
system.mem_ctrls.wrQLenPdf::55                      0                       # What write queue length does an incoming req see
system.mem_ctrls.wrQLenPdf::56                      0                       # What write queue length does an incoming req see
system.mem_ctrls.wrQLenPdf::57                      0                       # What write queue length does an incoming req see
system.mem_ctrls.wrQLenPdf::58                      0                       # What write queue length does an incoming req see
system.mem_ctrls.wrQLenPdf::59                      0                       # What write queue length does an incoming req see
system.mem_ctrls.wrQLenPdf::60                      0                       # What write queue length does an incoming req see
system.mem_ctrls.wrQLenPdf::61                      0                       # What write queue length does an incoming req see
system.mem_ctrls.wrQLenPdf::62                      0                       # What write queue length does an incoming req see
system.mem_ctrls.wrQLenPdf::63                      0                       # What write queue length does an incoming req see
system.mem_ctrls.bytesPerActivate::samples        97307                       # Bytes accessed per row activation
system.mem_ctrls.bytesPerActivate::mean    128.771496                       # Bytes accessed per row activation
system.mem_ctrls.bytesPerActivate::gmean   110.610752                       # Bytes accessed per row activation
system.mem_ctrls.bytesPerActivate::stdev    77.261816                       # Bytes accessed per row activation
system.mem_ctrls.bytesPerActivate::0-127        41833     42.99%     42.99% # Bytes accessed per row activation
system.mem_ctrls.bytesPerActivate::128-255        44296     45.52%     88.51% # Bytes accessed per row activation
system.mem_ctrls.bytesPerActivate::256-383         9672      9.94%     98.45% # Bytes accessed per row activation
system.mem_ctrls.bytesPerActivate::384-511         1306      1.34%     99.79% # Bytes accessed per row activation
system.mem_ctrls.bytesPerActivate::512-639          165      0.17%     99.96% # Bytes accessed per row activation
system.mem_ctrls.bytesPerActivate::640-767           18      0.02%     99.98% # Bytes accessed per row activation
system.mem_ctrls.bytesPerActivate::768-895            8      0.01%     99.99% # Bytes accessed per row activation
system.mem_ctrls.bytesPerActivate::896-1023            1      0.00%     99.99% # Bytes accessed per row activation
system.mem_ctrls.bytesPerActivate::1024-1151            8      0.01%    100.00% # Bytes accessed per row activation
system.mem_ctrls.bytesPerActivate::total        97307                       # Bytes accessed per row activation
system.mem_ctrls.rdPerTurnAround::samples           25                       # Reads before turning the bus around for writes
system.mem_ctrls.rdPerTurnAround::mean    7646.240000                       # Reads before turning the bus around for writes
system.mem_ctrls.rdPerTurnAround::gmean   7426.510701                       # Reads before turning the bus around for writes
system.mem_ctrls.rdPerTurnAround::stdev   1849.023014                       # Reads before turning the bus around for writes
system.mem_ctrls.rdPerTurnAround::4096-4607            1      4.00%      4.00% # Reads before turning the bus around for writes
system.mem_ctrls.rdPerTurnAround::4608-5119            2      8.00%     12.00% # Reads before turning the bus around for writes
system.mem_ctrls.rdPerTurnAround::5120-5631            1      4.00%     16.00% # Reads before turning the bus around for writes
system.mem_ctrls.rdPerTurnAround::5632-6143            1      4.00%     20.00% # Reads before turning the bus around for writes
system.mem_ctrls.rdPerTurnAround::6144-6655            2      8.00%     28.00% # Reads before turning the bus around for writes
system.mem_ctrls.rdPerTurnAround::6656-7167            4     16.00%     44.00% # Reads before turning the bus around for writes
system.mem_ctrls.rdPerTurnAround::7168-7679            1      4.00%     48.00% # Reads before turning the bus around for writes
system.mem_ctrls.rdPerTurnAround::7680-8191            4     16.00%     64.00% # Reads before turning the bus around for writes
system.mem_ctrls.rdPerTurnAround::8192-8703            1      4.00%     68.00% # Reads before turning the bus around for writes
system.mem_ctrls.rdPerTurnAround::8704-9215            4     16.00%     84.00% # Reads before turning the bus around for writes
system.mem_ctrls.rdPerTurnAround::9216-9727            2      8.00%     92.00% # Reads before turning the bus around for writes
system.mem_ctrls.rdPerTurnAround::10240-10751            1      4.00%     96.00% # Reads before turning the bus around for writes
system.mem_ctrls.rdPerTurnAround::11776-12287            1      4.00%    100.00% # Reads before turning the bus around for writes
system.mem_ctrls.rdPerTurnAround::total            25                       # Reads before turning the bus around for writes
system.mem_ctrls.wrPerTurnAround::samples           25                       # Writes before turning the bus around for reads
system.mem_ctrls.wrPerTurnAround::mean             16                       # Writes before turning the bus around for reads
system.mem_ctrls.wrPerTurnAround::gmean     16.000000                       # Writes before turning the bus around for reads
system.mem_ctrls.wrPerTurnAround::16               25    100.00%    100.00% # Writes before turning the bus around for reads
system.mem_ctrls.wrPerTurnAround::total            25                       # Writes before turning the bus around for reads
system.mem_ctrls.totQLat                   4729548000                       # Total ticks spent queuing
system.mem_ctrls.totMemAccLat              8393091750                       # Total ticks spent from burst creation until serviced by the DRAM
system.mem_ctrls.totBusLat                  976945000                       # Total ticks spent in databus transfers
system.mem_ctrls.avgQLat                     24205.80                       # Average queueing delay per DRAM burst
system.mem_ctrls.avgBusLat                    5000.00                       # Average bus latency per DRAM burst
system.mem_ctrls.avgMemAccLat                42955.80                       # Average memory access latency per DRAM burst
system.mem_ctrls.avgRdBW                       819.06                       # Average DRAM read bandwidth in MiByte/s
system.mem_ctrls.avgWrBW                         1.68                       # Average achieved write bandwidth in MiByte/s
system.mem_ctrls.avgRdBWSys                    819.33                       # Average system read bandwidth in MiByte/s
system.mem_ctrls.avgWrBWSys                      1.71                       # Average system write bandwidth in MiByte/s
system.mem_ctrls.peakBW                      12800.00                       # Theoretical peak bandwidth in MiByte/s
system.mem_ctrls.busUtil                         6.41                       # Data bus utilization in percentage
system.mem_ctrls.busUtilRead                     6.40                       # Data bus utilization in percentage for reads
system.mem_ctrls.busUtilWrite                    0.01                       # Data bus utilization in percentage for writes
system.mem_ctrls.avgRdQLen                       1.32                       # Average read queue length when enqueuing
system.mem_ctrls.avgWrQLen                      25.39                       # Average write queue length when enqueuing
system.mem_ctrls.readRowHits                    98135                       # Number of row buffer hits during reads
system.mem_ctrls.writeRowHits                     345                       # Number of row buffer hits during writes
system.mem_ctrls.readRowHitRate                 50.23                       # Row buffer hit rate for reads
system.mem_ctrls.writeRowHitRate                84.98                       # Row buffer hit rate for writes
system.mem_ctrls.avgGap                      77950.44                       # Average gap between requests
system.mem_ctrls.pageHitRate                    50.30                       # Row buffer hit rate, read and write combined
system.mem_ctrls_0.actEnergy                350809620                       # Energy for activate commands per rank (pJ)
system.mem_ctrls_0.preEnergy                186429375                       # Energy for precharge commands per rank (pJ)
system.mem_ctrls_0.readEnergy               706181700                       # Energy for read commands per rank (pJ)
system.mem_ctrls_0.writeEnergy                1753920                       # Energy for write commands per rank (pJ)
system.mem_ctrls_0.refreshEnergy         1204694400.000000                       # Energy for refresh commands per rank (pJ)
system.mem_ctrls_0.actBackEnergy           1647125010                       # Energy for active background per rank (pJ)
system.mem_ctrls_0.preBackEnergy             24552960                       # Energy for precharge background per rank (pJ)
system.mem_ctrls_0.actPowerDownEnergy      5151102540                       # Energy for active power-down per rank (pJ)
system.mem_ctrls_0.prePowerDownEnergy       113267520                       # Energy for precharge power-down per rank (pJ)
system.mem_ctrls_0.selfRefreshEnergy                0                       # Energy for self refresh per rank (pJ)
system.mem_ctrls_0.totalEnergy             9385917045                       # Total energy per rank (pJ)
system.mem_ctrls_0.averagePower            614.770779                       # Core power per rank (mW)
system.mem_ctrls_0.totalIdleTime          11591850250                       # Total Idle time Per DRAM Rank
system.mem_ctrls_0.memoryStateTime::IDLE      9666000                       # Time in different power states
system.mem_ctrls_0.memoryStateTime::REF     509662500                       # Time in different power states
system.mem_ctrls_0.memoryStateTime::SREF            0                       # Time in different power states
system.mem_ctrls_0.memoryStateTime::PRE_PDN    294774250                       # Time in different power states
system.mem_ctrls_0.memoryStateTime::ACT    3156083250                       # Time in different power states
system.mem_ctrls_0.memoryStateTime::ACT_PDN  11297158125                       # Time in different power states
system.mem_ctrls_1.actEnergy                343976640                       # Energy for activate commands per rank (pJ)
system.mem_ctrls_1.preEnergy                182850690                       # Energy for precharge commands per rank (pJ)
system.mem_ctrls_1.readEnergy               688895760                       # Energy for read commands per rank (pJ)
system.mem_ctrls_1.writeEnergy                 334080                       # Energy for write commands per rank (pJ)
system.mem_ctrls_1.refreshEnergy         1205923680.000000                       # Energy for refresh commands per rank (pJ)
system.mem_ctrls_1.actBackEnergy           1612053480                       # Energy for active background per rank (pJ)
system.mem_ctrls_1.preBackEnergy             24589920                       # Energy for precharge background per rank (pJ)
system.mem_ctrls_1.actPowerDownEnergy      5189112990                       # Energy for active power-down per rank (pJ)
system.mem_ctrls_1.prePowerDownEnergy       109893120                       # Energy for precharge power-down per rank (pJ)
system.mem_ctrls_1.selfRefreshEnergy          1101540                       # Energy for self refresh per rank (pJ)
system.mem_ctrls_1.totalEnergy             9358731900                       # Total energy per rank (pJ)
system.mem_ctrls_1.averagePower            612.990172                       # Core power per rank (mW)
system.mem_ctrls_1.totalIdleTime          11666923000                       # Total Idle time Per DRAM Rank
system.mem_ctrls_1.memoryStateTime::IDLE      9798750                       # Time in different power states
system.mem_ctrls_1.memoryStateTime::REF     510126000                       # Time in different power states
system.mem_ctrls_1.memoryStateTime::SREF      2288500                       # Time in different power states
system.mem_ctrls_1.memoryStateTime::PRE_PDN    285880000                       # Time in different power states
system.mem_ctrls_1.memoryStateTime::ACT    3080496375                       # Time in different power states
system.mem_ctrls_1.memoryStateTime::ACT_PDN  11378754500                       # Time in different power states
system.pwrStateResidencyTicks::UNDEFINED  15267344125                       # Cumulative time (in ticks) in various power states
system.cpu0.branchPred.lookups                1528506                       # Number of BP lookups
system.cpu0.branchPred.condPredicted          1528506                       # Number of conditional branches predicted
system.cpu0.branchPred.condIncorrect            67711                       # Number of conditional branches incorrect
system.cpu0.branchPred.BTBLookups             1197901                       # Number of BTB lookups
system.cpu0.branchPred.BTBHits                      0                       # Number of BTB hits
system.cpu0.branchPred.BTBCorrect                   0                       # Number of correct BTB predictions (this stat may not work properly.
system.cpu0.branchPred.BTBHitPct             0.000000                       # BTB Hit Percentage
system.cpu0.branchPred.usedRAS                  47776                       # Number of times the RAS was used to get a target.
system.cpu0.branchPred.RASInCorrect              8367                       # Number of incorrect RAS predictions.
system.cpu0.branchPred.indirectLookups        1197901                       # Number of indirect predictor lookups.
system.cpu0.branchPred.indirectHits            641309                       # Number of indirect target hits.
system.cpu0.branchPred.indirectMisses          556592                       # Number of indirect misses.
system.cpu0.branchPredindirectMispredicted        22811                       # Number of mispredicted indirect branches.
system.cpu_voltage_domain.voltage                   1                       # Voltage in Volts
system.cpu_clk_domain.clock                       500                       # Clock period in ticks
system.cpu0.dtb.walker.pwrStateResidencyTicks::UNDEFINED  15267344125                       # Cumulative time (in ticks) in various power states
system.cpu0.dtb.rdAccesses                     738795                       # TLB accesses on read requests
system.cpu0.dtb.wrAccesses                      57608                       # TLB accesses on write requests
system.cpu0.dtb.rdMisses                       147100                       # TLB misses on read requests
system.cpu0.dtb.wrMisses                          887                       # TLB misses on write requests
system.cpu0.apic_clk_domain.clock                8000                       # Clock period in ticks
system.cpu0.interrupts.pwrStateResidencyTicks::UNDEFINED  15267344125                       # Cumulative time (in ticks) in various power states
system.cpu0.itb.walker.pwrStateResidencyTicks::UNDEFINED  15267344125                       # Cumulative time (in ticks) in various power states
system.cpu0.itb.rdAccesses                          0                       # TLB accesses on read requests
system.cpu0.itb.wrAccesses                    1251545                       # TLB accesses on write requests
system.cpu0.itb.rdMisses                            0                       # TLB misses on read requests
system.cpu0.itb.wrMisses                         7647                       # TLB misses on write requests
system.cpu0.workload.numSyscalls                    0                       # Number of system calls
system.cpu0.pwrStateResidencyTicks::ON    15267344125                       # Cumulative time (in ticks) in various power states
system.cpu0.numCycles                        30534688                       # number of cpu cycles simulated
system.cpu0.numWorkItemsStarted                     0                       # number of work items this cpu started
system.cpu0.numWorkItemsCompleted                   0                       # number of work items this cpu completed
system.cpu0.fetch.icacheStallCycles           1280486                       # Number of cycles fetch is stalled on an Icache miss
system.cpu0.fetch.Insts                       4531723                       # Number of instructions fetch has processed
system.cpu0.fetch.Branches                    1528506                       # Number of branches that fetch encountered
system.cpu0.fetch.predictedBranches            689085                       # Number of branches that fetch has predicted taken
system.cpu0.fetch.Cycles                     29039984                       # Number of cycles fetch has run and was not squashing or blocked
system.cpu0.fetch.SquashCycles                 140278                       # Number of cycles fetch has spent squashing
system.cpu0.fetch.TlbCycles                      1739                       # Number of cycles fetch has spent waiting for tlb
system.cpu0.fetch.MiscStallCycles                1844                       # Number of cycles fetch has spent waiting on interrupts, or bad addresses, or out of MSHRs
system.cpu0.fetch.PendingTrapStallCycles        64394                       # Number of stall cycles due to pending traps
system.cpu0.fetch.CacheLines                  1243898                       # Number of cache lines fetched
system.cpu0.fetch.IcacheSquashes                 7366                       # Number of outstanding Icache misses that were squashed
system.cpu0.fetch.ItlbSquashes                     16                       # Number of outstanding ITLB misses that were squashed
system.cpu0.fetch.rateDist::samples          30458586                       # Number of instructions fetched each cycle (Total)
system.cpu0.fetch.rateDist::mean             0.299220                       # Number of instructions fetched each cycle (Total)
system.cpu0.fetch.rateDist::stdev            1.380714                       # Number of instructions fetched each cycle (Total)
system.cpu0.fetch.rateDist::underflows              0      0.00%      0.00% # Number of instructions fetched each cycle (Total)
system.cpu0.fetch.rateDist::0                28709906     94.26%     94.26% # Number of instructions fetched each cycle (Total)
system.cpu0.fetch.rateDist::1                   25241      0.08%     94.34% # Number of instructions fetched each cycle (Total)
system.cpu0.fetch.rateDist::2                  610376      2.00%     96.35% # Number of instructions fetched each cycle (Total)
system.cpu0.fetch.rateDist::3                   28322      0.09%     96.44% # Number of instructions fetched each cycle (Total)
system.cpu0.fetch.rateDist::4                  125959      0.41%     96.85% # Number of instructions fetched each cycle (Total)
system.cpu0.fetch.rateDist::5                   65400      0.21%     97.07% # Number of instructions fetched each cycle (Total)
system.cpu0.fetch.rateDist::6                   84665      0.28%     97.34% # Number of instructions fetched each cycle (Total)
system.cpu0.fetch.rateDist::7                   25691      0.08%     97.43% # Number of instructions fetched each cycle (Total)
system.cpu0.fetch.rateDist::8                  783026      2.57%    100.00% # Number of instructions fetched each cycle (Total)
system.cpu0.fetch.rateDist::overflows               0      0.00%    100.00% # Number of instructions fetched each cycle (Total)
system.cpu0.fetch.rateDist::min_value               0                       # Number of instructions fetched each cycle (Total)
system.cpu0.fetch.rateDist::max_value               8                       # Number of instructions fetched each cycle (Total)
system.cpu0.fetch.rateDist::total            30458586                       # Number of instructions fetched each cycle (Total)
system.cpu0.fetch.branchRate                 0.050058                       # Number of branch fetches per cycle
system.cpu0.fetch.rate                       0.148412                       # Number of inst fetches per cycle
system.cpu0.decode.IdleCycles                  649211                       # Number of cycles decode is idle
system.cpu0.decode.BlockedCycles             28596910                       # Number of cycles decode is blocked
system.cpu0.decode.RunCycles                   836349                       # Number of cycles decode is running
system.cpu0.decode.UnblockCycles               305977                       # Number of cycles decode is unblocking
system.cpu0.decode.SquashCycles                 70139                       # Number of cycles decode is squashing
system.cpu0.decode.DecodedInsts               7463912                       # Number of instructions handled by decode
system.cpu0.rename.SquashCycles                 70139                       # Number of cycles rename is squashing
system.cpu0.rename.IdleCycles                  742953                       # Number of cycles rename is idle
system.cpu0.rename.BlockCycles               27307919                       # Number of cycles rename is blocking
system.cpu0.rename.serializeStallCycles         36656                       # count of cycles rename stalled for serializing inst
system.cpu0.rename.RunCycles                   972306                       # Number of cycles rename is running
system.cpu0.rename.UnblockCycles              1328613                       # Number of cycles rename is unblocking
system.cpu0.rename.RenamedInsts               7151824                       # Number of instructions processed by rename
system.cpu0.rename.ROBFullEvents                71815                       # Number of times rename has blocked due to ROB full
system.cpu0.rename.IQFullEvents               1008661                       # Number of times rename has blocked due to IQ full
system.cpu0.rename.LQFullEvents                268824                       # Number of times rename has blocked due to LQ full
system.cpu0.rename.SQFullEvents                   643                       # Number of times rename has blocked due to SQ full
system.cpu0.rename.RenamedOperands            8504718                       # Number of destination operands rename has renamed
system.cpu0.rename.RenameLookups             19781003                       # Number of register rename lookups that rename has made
system.cpu0.rename.int_rename_lookups         9434659                       # Number of integer rename lookups
system.cpu0.rename.fp_rename_lookups            37627                       # Number of floating rename lookups
system.cpu0.rename.CommittedMaps              2978026                       # Number of HB maps that are committed
system.cpu0.rename.UndoneMaps                 5526680                       # Number of HB maps that are undone due to squashing
system.cpu0.rename.serializingInsts               503                       # count of serializing insts renamed
system.cpu0.rename.tempSerializingInsts           582                       # count of temporary serializing insts renamed
system.cpu0.rename.skidInsts                  1946623                       # count of insts added to the skid buffer
system.cpu0.memDep0.insertedLoads             1278645                       # Number of loads inserted to the mem dependence unit.
system.cpu0.memDep0.insertedStores              85342                       # Number of stores inserted to the mem dependence unit.
system.cpu0.memDep0.conflictingLoads             4938                       # Number of conflicting loads.
system.cpu0.memDep0.conflictingStores            4773                       # Number of conflicting stores.
system.cpu0.iq.iqInstsAdded                   6780679                       # Number of instructions added to the IQ (excludes non-spec)
system.cpu0.iq.iqNonSpecInstsAdded               4619                       # Number of non-speculative instructions added to the IQ
system.cpu0.iq.iqInstsIssued                  4889830                       # Number of instructions issued
system.cpu0.iq.iqSquashedInstsIssued             6079                       # Number of squashed instructions issued
system.cpu0.iq.iqSquashedInstsExamined        4304722                       # Number of squashed instructions iterated over during squash; mainly for profiling
system.cpu0.iq.iqSquashedOperandsExamined      8706938                       # Number of squashed operands that are examined and possibly removed from graph
system.cpu0.iq.iqSquashedNonSpecRemoved          4619                       # Number of squashed non-spec instructions that were removed
system.cpu0.iq.issued_per_cycle::samples     30458586                       # Number of insts issued each cycle
system.cpu0.iq.issued_per_cycle::mean        0.160540                       # Number of insts issued each cycle
system.cpu0.iq.issued_per_cycle::stdev       0.731618                       # Number of insts issued each cycle
system.cpu0.iq.issued_per_cycle::underflows            0      0.00%      0.00% # Number of insts issued each cycle
system.cpu0.iq.issued_per_cycle::0           28447659     93.40%     93.40% # Number of insts issued each cycle
system.cpu0.iq.issued_per_cycle::1             805029      2.64%     96.04% # Number of insts issued each cycle
system.cpu0.iq.issued_per_cycle::2             421666      1.38%     97.43% # Number of insts issued each cycle
system.cpu0.iq.issued_per_cycle::3             287295      0.94%     98.37% # Number of insts issued each cycle
system.cpu0.iq.issued_per_cycle::4             288456      0.95%     99.32% # Number of insts issued each cycle
system.cpu0.iq.issued_per_cycle::5              89554      0.29%     99.61% # Number of insts issued each cycle
system.cpu0.iq.issued_per_cycle::6              73508      0.24%     99.85% # Number of insts issued each cycle
system.cpu0.iq.issued_per_cycle::7              26410      0.09%     99.94% # Number of insts issued each cycle
system.cpu0.iq.issued_per_cycle::8              19009      0.06%    100.00% # Number of insts issued each cycle
system.cpu0.iq.issued_per_cycle::overflows            0      0.00%    100.00% # Number of insts issued each cycle
system.cpu0.iq.issued_per_cycle::min_value            0                       # Number of insts issued each cycle
system.cpu0.iq.issued_per_cycle::max_value            8                       # Number of insts issued each cycle
system.cpu0.iq.issued_per_cycle::total       30458586                       # Number of insts issued each cycle
system.cpu0.iq.fu_full::No_OpClass                  0      0.00%      0.00% # attempts to use FU when none available
system.cpu0.iq.fu_full::IntAlu                  10335     66.44%     66.44% # attempts to use FU when none available
system.cpu0.iq.fu_full::IntMult                     0      0.00%     66.44% # attempts to use FU when none available
system.cpu0.iq.fu_full::IntDiv                      0      0.00%     66.44% # attempts to use FU when none available
system.cpu0.iq.fu_full::FloatAdd                 1049      6.74%     73.18% # attempts to use FU when none available
system.cpu0.iq.fu_full::FloatCmp                    0      0.00%     73.18% # attempts to use FU when none available
system.cpu0.iq.fu_full::FloatCvt                    0      0.00%     73.18% # attempts to use FU when none available
system.cpu0.iq.fu_full::FloatMult                   0      0.00%     73.18% # attempts to use FU when none available
system.cpu0.iq.fu_full::FloatMultAcc                0      0.00%     73.18% # attempts to use FU when none available
system.cpu0.iq.fu_full::FloatDiv                    0      0.00%     73.18% # attempts to use FU when none available
system.cpu0.iq.fu_full::FloatMisc                   0      0.00%     73.18% # attempts to use FU when none available
system.cpu0.iq.fu_full::FloatSqrt                   0      0.00%     73.18% # attempts to use FU when none available
system.cpu0.iq.fu_full::SimdAdd                     0      0.00%     73.18% # attempts to use FU when none available
system.cpu0.iq.fu_full::SimdAddAcc                  0      0.00%     73.18% # attempts to use FU when none available
system.cpu0.iq.fu_full::SimdAlu                     0      0.00%     73.18% # attempts to use FU when none available
system.cpu0.iq.fu_full::SimdCmp                     0      0.00%     73.18% # attempts to use FU when none available
system.cpu0.iq.fu_full::SimdCvt                     0      0.00%     73.18% # attempts to use FU when none available
system.cpu0.iq.fu_full::SimdMisc                    0      0.00%     73.18% # attempts to use FU when none available
system.cpu0.iq.fu_full::SimdMult                    0      0.00%     73.18% # attempts to use FU when none available
system.cpu0.iq.fu_full::SimdMultAcc                 0      0.00%     73.18% # attempts to use FU when none available
system.cpu0.iq.fu_full::SimdShift                   0      0.00%     73.18% # attempts to use FU when none available
system.cpu0.iq.fu_full::SimdShiftAcc                0      0.00%     73.18% # attempts to use FU when none available
system.cpu0.iq.fu_full::SimdSqrt                    0      0.00%     73.18% # attempts to use FU when none available
system.cpu0.iq.fu_full::SimdFloatAdd                0      0.00%     73.18% # attempts to use FU when none available
system.cpu0.iq.fu_full::SimdFloatAlu                0      0.00%     73.18% # attempts to use FU when none available
system.cpu0.iq.fu_full::SimdFloatCmp                0      0.00%     73.18% # attempts to use FU when none available
system.cpu0.iq.fu_full::SimdFloatCvt                0      0.00%     73.18% # attempts to use FU when none available
system.cpu0.iq.fu_full::SimdFloatDiv                0      0.00%     73.18% # attempts to use FU when none available
system.cpu0.iq.fu_full::SimdFloatMisc               0      0.00%     73.18% # attempts to use FU when none available
system.cpu0.iq.fu_full::SimdFloatMult               0      0.00%     73.18% # attempts to use FU when none available
system.cpu0.iq.fu_full::SimdFloatMultAcc            0      0.00%     73.18% # attempts to use FU when none available
system.cpu0.iq.fu_full::SimdFloatSqrt               0      0.00%     73.18% # attempts to use FU when none available
system.cpu0.iq.fu_full::MemRead                  3684     23.68%     96.86% # attempts to use FU when none available
system.cpu0.iq.fu_full::MemWrite                  330      2.12%     98.98% # attempts to use FU when none available
system.cpu0.iq.fu_full::FloatMemRead              146      0.94%     99.92% # attempts to use FU when none available
system.cpu0.iq.fu_full::FloatMemWrite              12      0.08%    100.00% # attempts to use FU when none available
system.cpu0.iq.fu_full::IprAccess                   0      0.00%    100.00% # attempts to use FU when none available
system.cpu0.iq.fu_full::InstPrefetch                0      0.00%    100.00% # attempts to use FU when none available
system.cpu0.iq.FU_type_0::No_OpClass            20410      0.42%      0.42% # Type of FU issued
system.cpu0.iq.FU_type_0::IntAlu              4010051     82.01%     82.43% # Type of FU issued
system.cpu0.iq.FU_type_0::IntMult                1188      0.02%     82.45% # Type of FU issued
system.cpu0.iq.FU_type_0::IntDiv                 9439      0.19%     82.64% # Type of FU issued
system.cpu0.iq.FU_type_0::FloatAdd              13825      0.28%     82.93% # Type of FU issued
system.cpu0.iq.FU_type_0::FloatCmp                  0      0.00%     82.93% # Type of FU issued
system.cpu0.iq.FU_type_0::FloatCvt                  0      0.00%     82.93% # Type of FU issued
system.cpu0.iq.FU_type_0::FloatMult                 0      0.00%     82.93% # Type of FU issued
system.cpu0.iq.FU_type_0::FloatMultAcc              0      0.00%     82.93% # Type of FU issued
system.cpu0.iq.FU_type_0::FloatDiv                  0      0.00%     82.93% # Type of FU issued
system.cpu0.iq.FU_type_0::FloatMisc                 0      0.00%     82.93% # Type of FU issued
system.cpu0.iq.FU_type_0::FloatSqrt                 0      0.00%     82.93% # Type of FU issued
system.cpu0.iq.FU_type_0::SimdAdd                   0      0.00%     82.93% # Type of FU issued
system.cpu0.iq.FU_type_0::SimdAddAcc                0      0.00%     82.93% # Type of FU issued
system.cpu0.iq.FU_type_0::SimdAlu                   0      0.00%     82.93% # Type of FU issued
system.cpu0.iq.FU_type_0::SimdCmp                   0      0.00%     82.93% # Type of FU issued
system.cpu0.iq.FU_type_0::SimdCvt                   0      0.00%     82.93% # Type of FU issued
system.cpu0.iq.FU_type_0::SimdMisc                  0      0.00%     82.93% # Type of FU issued
system.cpu0.iq.FU_type_0::SimdMult                  0      0.00%     82.93% # Type of FU issued
system.cpu0.iq.FU_type_0::SimdMultAcc               0      0.00%     82.93% # Type of FU issued
system.cpu0.iq.FU_type_0::SimdShift                 0      0.00%     82.93% # Type of FU issued
system.cpu0.iq.FU_type_0::SimdShiftAcc              0      0.00%     82.93% # Type of FU issued
system.cpu0.iq.FU_type_0::SimdSqrt                  0      0.00%     82.93% # Type of FU issued
system.cpu0.iq.FU_type_0::SimdFloatAdd              0      0.00%     82.93% # Type of FU issued
system.cpu0.iq.FU_type_0::SimdFloatAlu              0      0.00%     82.93% # Type of FU issued
system.cpu0.iq.FU_type_0::SimdFloatCmp              0      0.00%     82.93% # Type of FU issued
system.cpu0.iq.FU_type_0::SimdFloatCvt              0      0.00%     82.93% # Type of FU issued
system.cpu0.iq.FU_type_0::SimdFloatDiv              0      0.00%     82.93% # Type of FU issued
system.cpu0.iq.FU_type_0::SimdFloatMisc             0      0.00%     82.93% # Type of FU issued
system.cpu0.iq.FU_type_0::SimdFloatMult             0      0.00%     82.93% # Type of FU issued
system.cpu0.iq.FU_type_0::SimdFloatMultAcc            0      0.00%     82.93% # Type of FU issued
system.cpu0.iq.FU_type_0::SimdFloatSqrt             0      0.00%     82.93% # Type of FU issued
system.cpu0.iq.FU_type_0::MemRead              769959     15.75%     98.67% # Type of FU issued
system.cpu0.iq.FU_type_0::MemWrite              62234      1.27%     99.94% # Type of FU issued
system.cpu0.iq.FU_type_0::FloatMemRead           2696      0.06%    100.00% # Type of FU issued
system.cpu0.iq.FU_type_0::FloatMemWrite            28      0.00%    100.00% # Type of FU issued
system.cpu0.iq.FU_type_0::IprAccess                 0      0.00%    100.00% # Type of FU issued
system.cpu0.iq.FU_type_0::InstPrefetch              0      0.00%    100.00% # Type of FU issued
system.cpu0.iq.FU_type_0::total               4889830                       # Type of FU issued
system.cpu0.iq.rate                          0.160140                       # Inst issue rate
system.cpu0.iq.fu_busy_cnt                      15556                       # FU busy when requested
system.cpu0.iq.fu_busy_rate                  0.003181                       # FU busy rate (busy events/executed inst)
system.cpu0.iq.int_inst_queue_reads          40225444                       # Number of integer instruction queue reads
system.cpu0.iq.int_inst_queue_writes         11057888                       # Number of integer instruction queue writes
system.cpu0.iq.int_inst_queue_wakeup_accesses      4682194                       # Number of integer instruction queue wakeup accesses
system.cpu0.iq.fp_inst_queue_reads              34437                       # Number of floating instruction queue reads
system.cpu0.iq.fp_inst_queue_writes             32134                       # Number of floating instruction queue writes
system.cpu0.iq.fp_inst_queue_wakeup_accesses        15022                       # Number of floating instruction queue wakeup accesses
system.cpu0.iq.vec_inst_queue_reads                 0                       # Number of vector instruction queue reads
system.cpu0.iq.vec_inst_queue_writes                0                       # Number of vector instruction queue writes
system.cpu0.iq.vec_inst_queue_wakeup_accesses            0                       # Number of vector instruction queue wakeup accesses
system.cpu0.iq.int_alu_accesses               4867216                       # Number of integer alu accesses
system.cpu0.iq.fp_alu_accesses                  17760                       # Number of floating point alu accesses
system.cpu0.iq.vec_alu_accesses                     0                       # Number of vector alu accesses
system.cpu0.iew.lsq.thread0.forwLoads            4432                       # Number of loads that had data forwarded from stores
system.cpu0.iew.lsq.thread0.invAddrLoads            0                       # Number of loads ignored due to an invalid address
system.cpu0.iew.lsq.thread0.squashedLoads       814940                       # Number of loads squashed
system.cpu0.iew.lsq.thread0.ignoredResponses          168                       # Number of memory responses ignored because the instruction is squashed
system.cpu0.iew.lsq.thread0.memOrderViolation            2                       # Number of memory ordering violations
system.cpu0.iew.lsq.thread0.squashedStores        58365                       # Number of stores squashed
system.cpu0.iew.lsq.thread0.invAddrSwpfs            0                       # Number of software prefetches ignored due to an invalid address
system.cpu0.iew.lsq.thread0.blockedLoads            0                       # Number of blocked loads due to partial load-store forwarding
system.cpu0.iew.lsq.thread0.rescheduledLoads           42                       # Number of loads that were rescheduled
system.cpu0.iew.lsq.thread0.cacheBlocked         1703                       # Number of times an access to memory failed due to the cache being blocked
system.cpu0.iew.iewIdleCycles                       0                       # Number of cycles IEW is idle
system.cpu0.iew.iewSquashCycles                 70139                       # Number of cycles IEW is squashing
system.cpu0.iew.iewBlockCycles               25189316                       # Number of cycles IEW is blocking
system.cpu0.iew.iewUnblockCycles               276406                       # Number of cycles IEW is unblocking
system.cpu0.iew.iewDispatchedInsts            6785298                       # Number of instructions dispatched to IQ
system.cpu0.iew.iewDispSquashedInsts             5382                       # Number of squashed instructions skipped by dispatch
system.cpu0.iew.iewDispLoadInsts              1278645                       # Number of dispatched load instructions
system.cpu0.iew.iewDispStoreInsts               85342                       # Number of dispatched store instructions
system.cpu0.iew.iewDispNonSpecInsts              1830                       # Number of dispatched non-speculative instructions
system.cpu0.iew.iewIQFullEvents                 18831                       # Number of times the IQ has become full, causing a stall
system.cpu0.iew.iewLSQFullEvents                74378                       # Number of times the LSQ has become full, causing a stall
system.cpu0.iew.memOrderViolationEvents             2                       # Number of memory order violations
system.cpu0.iew.predictedTakenIncorrect         35929                       # Number of branches that were predicted taken incorrectly
system.cpu0.iew.predictedNotTakenIncorrect        42055                       # Number of branches that were predicted not taken incorrectly
system.cpu0.iew.branchMispredicts               77984                       # Number of branch mispredicts detected at execute
system.cpu0.iew.iewExecutedInsts              4799657                       # Number of executed instructions
system.cpu0.iew.iewExecLoadInsts               738524                       # Number of load instructions executed
system.cpu0.iew.iewExecSquashedInsts            90173                       # Number of squashed instructions skipped in execute
system.cpu0.iew.exec_swp                            0                       # number of swp insts executed
system.cpu0.iew.exec_nop                            0                       # number of nop insts executed
system.cpu0.iew.exec_refs                      796120                       # number of memory reference insts executed
system.cpu0.iew.exec_branches                  571745                       # Number of branches executed
system.cpu0.iew.exec_stores                     57596                       # Number of stores executed
system.cpu0.iew.exec_rate                    0.157187                       # Inst execution rate
system.cpu0.iew.wb_sent                       4715430                       # cumulative count of insts sent to commit
system.cpu0.iew.wb_count                      4697216                       # cumulative count of insts written-back
system.cpu0.iew.wb_producers                  3442582                       # num instructions producing a value
system.cpu0.iew.wb_consumers                  5463120                       # num instructions consuming a value
system.cpu0.iew.wb_rate                      0.153832                       # insts written-back per cycle
system.cpu0.iew.wb_fanout                    0.630149                       # average fanout of values written-back
system.cpu0.commit.commitSquashedInsts        4305547                       # The number of squashed insts skipped by commit
system.cpu0.commit.branchMispredicts            70137                       # The number of times a branch was mispredicted
system.cpu0.commit.committed_per_cycle::samples     29842006                       # Number of insts commited each cycle
system.cpu0.commit.committed_per_cycle::mean     0.083123                       # Number of insts commited each cycle
system.cpu0.commit.committed_per_cycle::stdev     0.531356                       # Number of insts commited each cycle
system.cpu0.commit.committed_per_cycle::underflows            0      0.00%      0.00% # Number of insts commited each cycle
system.cpu0.commit.committed_per_cycle::0     28764009     96.39%     96.39% # Number of insts commited each cycle
system.cpu0.commit.committed_per_cycle::1       496442      1.66%     98.05% # Number of insts commited each cycle
system.cpu0.commit.committed_per_cycle::2       120176      0.40%     98.45% # Number of insts commited each cycle
system.cpu0.commit.committed_per_cycle::3       323372      1.08%     99.54% # Number of insts commited each cycle
system.cpu0.commit.committed_per_cycle::4        56807      0.19%     99.73% # Number of insts commited each cycle
system.cpu0.commit.committed_per_cycle::5        29068      0.10%     99.83% # Number of insts commited each cycle
system.cpu0.commit.committed_per_cycle::6         5967      0.02%     99.85% # Number of insts commited each cycle
system.cpu0.commit.committed_per_cycle::7         4047      0.01%     99.86% # Number of insts commited each cycle
system.cpu0.commit.committed_per_cycle::8        42118      0.14%    100.00% # Number of insts commited each cycle
system.cpu0.commit.committed_per_cycle::overflows            0      0.00%    100.00% # Number of insts commited each cycle
system.cpu0.commit.committed_per_cycle::min_value            0                       # Number of insts commited each cycle
system.cpu0.commit.committed_per_cycle::max_value            8                       # Number of insts commited each cycle
system.cpu0.commit.committed_per_cycle::total     29842006                       # Number of insts commited each cycle
system.cpu0.commit.committedInsts             1241839                       # Number of instructions committed
system.cpu0.commit.committedOps               2480553                       # Number of ops (including micro ops) committed
system.cpu0.commit.swp_count                        0                       # Number of s/w prefetches committed
system.cpu0.commit.refs                        490671                       # Number of memory references committed
system.cpu0.commit.loads                       463699                       # Number of loads committed
system.cpu0.commit.membars                          0                       # Number of memory barriers committed
system.cpu0.commit.branches                    443808                       # Number of branches committed
system.cpu0.commit.vec_insts                        0                       # Number of committed Vector instructions.
system.cpu0.commit.fp_insts                     10870                       # Number of committed floating point instructions.
system.cpu0.commit.int_insts                  2469606                       # Number of committed integer instructions.
system.cpu0.commit.function_calls                4750                       # Number of function calls committed.
system.cpu0.commit.op_class_0::No_OpClass         3263      0.13%      0.13% # Class of committed instruction
system.cpu0.commit.op_class_0::IntAlu         1969237     79.39%     79.52% # Class of committed instruction
system.cpu0.commit.op_class_0::IntMult            190      0.01%     79.53% # Class of committed instruction
system.cpu0.commit.op_class_0::IntDiv            7918      0.32%     79.85% # Class of committed instruction
system.cpu0.commit.op_class_0::FloatAdd          9274      0.37%     80.22% # Class of committed instruction
system.cpu0.commit.op_class_0::FloatCmp             0      0.00%     80.22% # Class of committed instruction
system.cpu0.commit.op_class_0::FloatCvt             0      0.00%     80.22% # Class of committed instruction
system.cpu0.commit.op_class_0::FloatMult            0      0.00%     80.22% # Class of committed instruction
system.cpu0.commit.op_class_0::FloatMultAcc            0      0.00%     80.22% # Class of committed instruction
system.cpu0.commit.op_class_0::FloatDiv             0      0.00%     80.22% # Class of committed instruction
system.cpu0.commit.op_class_0::FloatMisc            0      0.00%     80.22% # Class of committed instruction
system.cpu0.commit.op_class_0::FloatSqrt            0      0.00%     80.22% # Class of committed instruction
system.cpu0.commit.op_class_0::SimdAdd              0      0.00%     80.22% # Class of committed instruction
system.cpu0.commit.op_class_0::SimdAddAcc            0      0.00%     80.22% # Class of committed instruction
system.cpu0.commit.op_class_0::SimdAlu              0      0.00%     80.22% # Class of committed instruction
system.cpu0.commit.op_class_0::SimdCmp              0      0.00%     80.22% # Class of committed instruction
system.cpu0.commit.op_class_0::SimdCvt              0      0.00%     80.22% # Class of committed instruction
system.cpu0.commit.op_class_0::SimdMisc             0      0.00%     80.22% # Class of committed instruction
system.cpu0.commit.op_class_0::SimdMult             0      0.00%     80.22% # Class of committed instruction
system.cpu0.commit.op_class_0::SimdMultAcc            0      0.00%     80.22% # Class of committed instruction
system.cpu0.commit.op_class_0::SimdShift            0      0.00%     80.22% # Class of committed instruction
system.cpu0.commit.op_class_0::SimdShiftAcc            0      0.00%     80.22% # Class of committed instruction
system.cpu0.commit.op_class_0::SimdSqrt             0      0.00%     80.22% # Class of committed instruction
system.cpu0.commit.op_class_0::SimdFloatAdd            0      0.00%     80.22% # Class of committed instruction
system.cpu0.commit.op_class_0::SimdFloatAlu            0      0.00%     80.22% # Class of committed instruction
system.cpu0.commit.op_class_0::SimdFloatCmp            0      0.00%     80.22% # Class of committed instruction
system.cpu0.commit.op_class_0::SimdFloatCvt            0      0.00%     80.22% # Class of committed instruction
system.cpu0.commit.op_class_0::SimdFloatDiv            0      0.00%     80.22% # Class of committed instruction
system.cpu0.commit.op_class_0::SimdFloatMisc            0      0.00%     80.22% # Class of committed instruction
system.cpu0.commit.op_class_0::SimdFloatMult            0      0.00%     80.22% # Class of committed instruction
system.cpu0.commit.op_class_0::SimdFloatMultAcc            0      0.00%     80.22% # Class of committed instruction
system.cpu0.commit.op_class_0::SimdFloatSqrt            0      0.00%     80.22% # Class of committed instruction
system.cpu0.commit.op_class_0::MemRead         462103     18.63%     98.85% # Class of committed instruction
system.cpu0.commit.op_class_0::MemWrite         26972      1.09%     99.94% # Class of committed instruction
system.cpu0.commit.op_class_0::FloatMemRead         1596      0.06%    100.00% # Class of committed instruction
system.cpu0.commit.op_class_0::FloatMemWrite            0      0.00%    100.00% # Class of committed instruction
system.cpu0.commit.op_class_0::IprAccess            0      0.00%    100.00% # Class of committed instruction
system.cpu0.commit.op_class_0::InstPrefetch            0      0.00%    100.00% # Class of committed instruction
system.cpu0.commit.op_class_0::total          2480553                       # Class of committed instruction
system.cpu0.commit.bw_lim_events                42118                       # number cycles where commit BW limit reached
system.cpu0.rob.rob_reads                    36585988                       # The number of ROB reads
system.cpu0.rob.rob_writes                   14190570                       # The number of ROB writes
system.cpu0.timesIdled                            589                       # Number of times that the entire CPU went into an idle state and unscheduled itself
system.cpu0.idleCycles                          76102                       # Total number of cycles that the CPU has spent unscheduled due to idling
system.cpu0.committedInsts                    1241839                       # Number of Instructions Simulated
system.cpu0.committedOps                      2480553                       # Number of Ops (including micro ops) Simulated
system.cpu0.cpi                             24.588282                       # CPI: Cycles Per Instruction
system.cpu0.cpi_total                       24.588282                       # CPI: Total CPI of All Threads
system.cpu0.ipc                              0.040670                       # IPC: Instructions Per Cycle
system.cpu0.ipc_total                        0.040670                       # IPC: Total IPC of All Threads
system.cpu0.int_regfile_reads                 4871968                       # number of integer regfile reads
system.cpu0.int_regfile_writes                4072470                       # number of integer regfile writes
system.cpu0.fp_regfile_reads                    26718                       # number of floating regfile reads
system.cpu0.fp_regfile_writes                   13335                       # number of floating regfile writes
system.cpu0.cc_regfile_reads                  2974274                       # number of cc regfile reads
system.cpu0.cc_regfile_writes                 1301022                       # number of cc regfile writes
system.cpu0.misc_regfile_reads                2507406                       # number of misc regfile reads
system.cpu0.dcache.tags.pwrStateResidencyTicks::UNDEFINED  15267344125                       # Cumulative time (in ticks) in various power states
system.cpu0.dcache.tags.replacements           240148                       # number of replacements
system.cpu0.dcache.tags.tagsinuse                1024                       # Cycle average of tags in use
system.cpu0.dcache.tags.total_refs             317543                       # Total number of references to valid blocks.
system.cpu0.dcache.tags.sampled_refs           240148                       # Sample count of references to valid blocks.
system.cpu0.dcache.tags.avg_refs             1.322280                       # Average number of references to valid blocks.
system.cpu0.dcache.tags.warmup_cycle                0                       # Cycle when the warmup percentage was hit.
system.cpu0.dcache.tags.occ_blocks::cpu0.data         1024                       # Average occupied blocks per requestor
system.cpu0.dcache.tags.occ_percent::cpu0.data            1                       # Average percentage of cache occupancy
system.cpu0.dcache.tags.occ_percent::total            1                       # Average percentage of cache occupancy
system.cpu0.dcache.tags.occ_task_id_blocks::1024         1024                       # Occupied blocks per task id
system.cpu0.dcache.tags.age_task_id_blocks_1024::0          137                       # Occupied blocks per task id
system.cpu0.dcache.tags.age_task_id_blocks_1024::1          792                       # Occupied blocks per task id
system.cpu0.dcache.tags.age_task_id_blocks_1024::2           94                       # Occupied blocks per task id
system.cpu0.dcache.tags.age_task_id_blocks_1024::3            1                       # Occupied blocks per task id
system.cpu0.dcache.tags.occ_task_id_percent::1024            1                       # Percentage of cache occupancy per task id
system.cpu0.dcache.tags.tag_accesses          3265768                       # Number of tag accesses
system.cpu0.dcache.tags.data_accesses         3265768                       # Number of data accesses
system.cpu0.dcache.pwrStateResidencyTicks::UNDEFINED  15267344125                       # Cumulative time (in ticks) in various power states
system.cpu0.dcache.ReadReq_hits::cpu0.data       301222                       # number of ReadReq hits
system.cpu0.dcache.ReadReq_hits::total         301222                       # number of ReadReq hits
system.cpu0.dcache.WriteReq_hits::cpu0.data        26031                       # number of WriteReq hits
system.cpu0.dcache.WriteReq_hits::total         26031                       # number of WriteReq hits
system.cpu0.dcache.demand_hits::cpu0.data       327253                       # number of demand (read+write) hits
system.cpu0.dcache.demand_hits::total          327253                       # number of demand (read+write) hits
system.cpu0.dcache.overall_hits::cpu0.data       327253                       # number of overall hits
system.cpu0.dcache.overall_hits::total         327253                       # number of overall hits
system.cpu0.dcache.ReadReq_misses::cpu0.data       428211                       # number of ReadReq misses
system.cpu0.dcache.ReadReq_misses::total       428211                       # number of ReadReq misses
system.cpu0.dcache.WriteReq_misses::cpu0.data          941                       # number of WriteReq misses
system.cpu0.dcache.WriteReq_misses::total          941                       # number of WriteReq misses
system.cpu0.dcache.demand_misses::cpu0.data       429152                       # number of demand (read+write) misses
system.cpu0.dcache.demand_misses::total        429152                       # number of demand (read+write) misses
system.cpu0.dcache.overall_misses::cpu0.data       429152                       # number of overall misses
system.cpu0.dcache.overall_misses::total       429152                       # number of overall misses
system.cpu0.dcache.ReadReq_miss_latency::cpu0.data  34819831000                       # number of ReadReq miss cycles
system.cpu0.dcache.ReadReq_miss_latency::total  34819831000                       # number of ReadReq miss cycles
system.cpu0.dcache.WriteReq_miss_latency::cpu0.data     36053500                       # number of WriteReq miss cycles
system.cpu0.dcache.WriteReq_miss_latency::total     36053500                       # number of WriteReq miss cycles
system.cpu0.dcache.demand_miss_latency::cpu0.data  34855884500                       # number of demand (read+write) miss cycles
system.cpu0.dcache.demand_miss_latency::total  34855884500                       # number of demand (read+write) miss cycles
system.cpu0.dcache.overall_miss_latency::cpu0.data  34855884500                       # number of overall miss cycles
system.cpu0.dcache.overall_miss_latency::total  34855884500                       # number of overall miss cycles
system.cpu0.dcache.ReadReq_accesses::cpu0.data       729433                       # number of ReadReq accesses(hits+misses)
system.cpu0.dcache.ReadReq_accesses::total       729433                       # number of ReadReq accesses(hits+misses)
system.cpu0.dcache.WriteReq_accesses::cpu0.data        26972                       # number of WriteReq accesses(hits+misses)
system.cpu0.dcache.WriteReq_accesses::total        26972                       # number of WriteReq accesses(hits+misses)
system.cpu0.dcache.demand_accesses::cpu0.data       756405                       # number of demand (read+write) accesses
system.cpu0.dcache.demand_accesses::total       756405                       # number of demand (read+write) accesses
system.cpu0.dcache.overall_accesses::cpu0.data       756405                       # number of overall (read+write) accesses
system.cpu0.dcache.overall_accesses::total       756405                       # number of overall (read+write) accesses
system.cpu0.dcache.ReadReq_miss_rate::cpu0.data     0.587046                       # miss rate for ReadReq accesses
system.cpu0.dcache.ReadReq_miss_rate::total     0.587046                       # miss rate for ReadReq accesses
system.cpu0.dcache.WriteReq_miss_rate::cpu0.data     0.034888                       # miss rate for WriteReq accesses
system.cpu0.dcache.WriteReq_miss_rate::total     0.034888                       # miss rate for WriteReq accesses
[...]
system.l2.ReadSharedReq_accesses::total        239212                       # number of ReadSharedReq accesses(hits+misses)
system.l2.demand_accesses::cpu0.inst                1                       # number of demand (read+write) accesses
system.l2.demand_accesses::cpu0.data           240149                       # number of demand (read+write) accesses
system.l2.demand_accesses::total               240150                       # number of demand (read+write) accesses
system.l2.overall_accesses::cpu0.inst               1                       # number of overall (read+write) accesses
system.l2.overall_accesses::cpu0.data          240149                       # number of overall (read+write) accesses
system.l2.overall_accesses::total              240150                       # number of overall (read+write) accesses
system.l2.ReadExReq_miss_rate::cpu0.data     0.265742                       # miss rate for ReadExReq accesses
system.l2.ReadExReq_miss_rate::total         0.265742                       # miss rate for ReadExReq accesses
system.l2.ReadCleanReq_miss_rate::cpu0.inst            1                       # miss rate for ReadCleanReq accesses
system.l2.ReadCleanReq_miss_rate::total             1                       # miss rate for ReadCleanReq accesses
system.l2.ReadSharedReq_miss_rate::cpu0.data     0.816025                       # miss rate for ReadSharedReq accesses
system.l2.ReadSharedReq_miss_rate::total     0.816025                       # miss rate for ReadSharedReq accesses
system.l2.demand_miss_rate::cpu0.inst               1                       # miss rate for demand accesses
system.l2.demand_miss_rate::cpu0.data        0.813878                       # miss rate for demand accesses
system.l2.demand_miss_rate::total            0.813879                       # miss rate for demand accesses
system.l2.overall_miss_rate::cpu0.inst              1                       # miss rate for overall accesses
system.l2.overall_miss_rate::cpu0.data       0.813878                       # miss rate for overall accesses
system.l2.overall_miss_rate::total           0.813879                       # miss rate for overall accesses
system.l2.ReadExReq_avg_miss_latency::cpu0.data 104381.526104                       # average ReadExReq miss latency
system.l2.ReadExReq_avg_miss_latency::total 104381.526104                       # average ReadExReq miss latency
system.l2.ReadCleanReq_avg_miss_latency::cpu0.inst        90000                       # average ReadCleanReq miss latency
system.l2.ReadCleanReq_avg_miss_latency::total        90000                       # average ReadCleanReq miss latency
system.l2.ReadSharedReq_avg_miss_latency::cpu0.data 94530.924217                       # average ReadSharedReq miss latency
system.l2.ReadSharedReq_avg_miss_latency::total 94530.924217                       # average ReadSharedReq miss latency
system.l2.demand_avg_miss_latency::cpu0.inst        90000                       # average overall miss latency
system.l2.demand_avg_miss_latency::cpu0.data 94543.473589                       # average overall miss latency
system.l2.demand_avg_miss_latency::total 94543.450344                       # average overall miss latency
system.l2.overall_avg_miss_latency::cpu0.inst        90000                       # average overall miss latency
system.l2.overall_avg_miss_latency::cpu0.data 94543.473589                       # average overall miss latency
system.l2.overall_avg_miss_latency::total 94543.450344                       # average overall miss latency
system.l2.blocked_cycles::no_mshrs                  0                       # number of cycles access was blocked
system.l2.blocked_cycles::no_targets                0                       # number of cycles access was blocked
system.l2.blocked::no_mshrs                         0                       # number of cycles access was blocked
system.l2.blocked::no_targets                       0                       # number of cycles access was blocked
system.l2.avg_blocked_cycles::no_mshrs            nan                       # average number of cycles each access was blocked
system.l2.avg_blocked_cycles::no_targets          nan                       # average number of cycles each access was blocked
system.l2.writebacks::writebacks                  407                       # number of writebacks
system.l2.writebacks::total                       407                       # number of writebacks
system.l2.ReadExReq_mshr_misses::cpu0.data          249                       # number of ReadExReq MSHR misses
system.l2.ReadExReq_mshr_misses::total            249                       # number of ReadExReq MSHR misses
system.l2.ReadCleanReq_mshr_misses::cpu0.inst            1                       # number of ReadCleanReq MSHR misses
system.l2.ReadCleanReq_mshr_misses::total            1                       # number of ReadCleanReq MSHR misses
system.l2.ReadSharedReq_mshr_misses::cpu0.data       195203                       # number of ReadSharedReq MSHR misses
system.l2.ReadSharedReq_mshr_misses::total       195203                       # number of ReadSharedReq MSHR misses
system.l2.demand_mshr_misses::cpu0.inst             1                       # number of demand (read+write) MSHR misses
system.l2.demand_mshr_misses::cpu0.data        195452                       # number of demand (read+write) MSHR misses
system.l2.demand_mshr_misses::total            195453                       # number of demand (read+write) MSHR misses
system.l2.overall_mshr_misses::cpu0.inst            1                       # number of overall MSHR misses
system.l2.overall_mshr_misses::cpu0.data       195452                       # number of overall MSHR misses
system.l2.overall_mshr_misses::total           195453                       # number of overall MSHR misses
system.l2.ReadExReq_mshr_miss_latency::cpu0.data     23501000                       # number of ReadExReq MSHR miss cycles
system.l2.ReadExReq_mshr_miss_latency::total     23501000                       # number of ReadExReq MSHR miss cycles
system.l2.ReadCleanReq_mshr_miss_latency::cpu0.inst        80000                       # number of ReadCleanReq MSHR miss cycles
system.l2.ReadCleanReq_mshr_miss_latency::total        80000                       # number of ReadCleanReq MSHR miss cycles
system.l2.ReadSharedReq_mshr_miss_latency::cpu0.data  16500700000                       # number of ReadSharedReq MSHR miss cycles
system.l2.ReadSharedReq_mshr_miss_latency::total  16500700000                       # number of ReadSharedReq MSHR miss cycles
system.l2.demand_mshr_miss_latency::cpu0.inst        80000                       # number of demand (read+write) MSHR miss cycles
system.l2.demand_mshr_miss_latency::cpu0.data  16524201000                       # number of demand (read+write) MSHR miss cycles
system.l2.demand_mshr_miss_latency::total  16524281000                       # number of demand (read+write) MSHR miss cycles
system.l2.overall_mshr_miss_latency::cpu0.inst        80000                       # number of overall MSHR miss cycles
system.l2.overall_mshr_miss_latency::cpu0.data  16524201000                       # number of overall MSHR miss cycles
system.l2.overall_mshr_miss_latency::total  16524281000                       # number of overall MSHR miss cycles
system.l2.ReadExReq_mshr_miss_rate::cpu0.data     0.265742                       # mshr miss rate for ReadExReq accesses
system.l2.ReadExReq_mshr_miss_rate::total     0.265742                       # mshr miss rate for ReadExReq accesses
system.l2.ReadCleanReq_mshr_miss_rate::cpu0.inst            1                       # mshr miss rate for ReadCleanReq accesses
system.l2.ReadCleanReq_mshr_miss_rate::total            1                       # mshr miss rate for ReadCleanReq accesses
system.l2.ReadSharedReq_mshr_miss_rate::cpu0.data     0.816025                       # mshr miss rate for ReadSharedReq accesses
system.l2.ReadSharedReq_mshr_miss_rate::total     0.816025                       # mshr miss rate for ReadSharedReq accesses
system.l2.demand_mshr_miss_rate::cpu0.inst            1                       # mshr miss rate for demand accesses
system.l2.demand_mshr_miss_rate::cpu0.data     0.813878                       # mshr miss rate for demand accesses
system.l2.demand_mshr_miss_rate::total       0.813879                       # mshr miss rate for demand accesses
system.l2.overall_mshr_miss_rate::cpu0.inst            1                       # mshr miss rate for overall accesses
system.l2.overall_mshr_miss_rate::cpu0.data     0.813878                       # mshr miss rate for overall accesses
system.l2.overall_mshr_miss_rate::total      0.813879                       # mshr miss rate for overall accesses
system.l2.ReadExReq_avg_mshr_miss_latency::cpu0.data 94381.526104                       # average ReadExReq mshr miss latency
system.l2.ReadExReq_avg_mshr_miss_latency::total 94381.526104                       # average ReadExReq mshr miss latency
system.l2.ReadCleanReq_avg_mshr_miss_latency::cpu0.inst        80000                       # average ReadCleanReq mshr miss latency
system.l2.ReadCleanReq_avg_mshr_miss_latency::total        80000                       # average ReadCleanReq mshr miss latency
system.l2.ReadSharedReq_avg_mshr_miss_latency::cpu0.data 84530.975446                       # average ReadSharedReq mshr miss latency
system.l2.ReadSharedReq_avg_mshr_miss_latency::total 84530.975446                       # average ReadSharedReq mshr miss latency
system.l2.demand_avg_mshr_miss_latency::cpu0.inst        80000                       # average overall mshr miss latency
system.l2.demand_avg_mshr_miss_latency::cpu0.data 84543.524753                       # average overall mshr miss latency
system.l2.demand_avg_mshr_miss_latency::total 84543.501507                       # average overall mshr miss latency
system.l2.overall_avg_mshr_miss_latency::cpu0.inst        80000                       # average overall mshr miss latency
system.l2.overall_avg_mshr_miss_latency::cpu0.data 84543.524753                       # average overall mshr miss latency
system.l2.overall_avg_mshr_miss_latency::total 84543.501507                       # average overall mshr miss latency
system.membus.snoop_filter.tot_requests        390896                       # Total number of requests made to the snoop filter.
system.membus.snoop_filter.hit_single_requests       195451                       # Number of requests hitting in the snoop filter with a single holder of the requested data.
system.membus.snoop_filter.hit_multi_requests            0                       # Number of requests hitting in the snoop filter with multiple (>1) holders of the requested data.
system.membus.snoop_filter.tot_snoops               0                       # Total number of snoops made to the snoop filter.
system.membus.snoop_filter.hit_single_snoops            0                       # Number of snoops hitting in the snoop filter with a single holder of the requested data.
system.membus.snoop_filter.hit_multi_snoops            0                       # Number of snoops hitting in the snoop filter with multiple (>1) holders of the requested data.
system.membus.pwrStateResidencyTicks::UNDEFINED  15267344125                       # Cumulative time (in ticks) in various power states
system.membus.trans_dist::ReadResp             195202                       # Transaction distribution
system.membus.trans_dist::WritebackDirty          407                       # Transaction distribution
system.membus.trans_dist::CleanEvict           195036                       # Transaction distribution
system.membus.trans_dist::ReadExReq               249                       # Transaction distribution
system.membus.trans_dist::ReadExResp              249                       # Transaction distribution
system.membus.trans_dist::ReadSharedReq        195204                       # Transaction distribution
system.membus.pkt_count_system.l2.mem_side::system.mem_ctrls.port       586347                       # Packet count per connected master and slave (bytes)
system.membus.pkt_count_system.l2.mem_side::total       586347                       # Packet count per connected master and slave (bytes)
system.membus.pkt_count::total                 586347                       # Packet count per connected master and slave (bytes)
system.membus.pkt_size_system.l2.mem_side::system.mem_ctrls.port     12534912                       # Cumulative packet size per connected master and slave (bytes)
system.membus.pkt_size_system.l2.mem_side::total     12534912                       # Cumulative packet size per connected master and slave (bytes)
system.membus.pkt_size::total                12534912                       # Cumulative packet size per connected master and slave (bytes)
system.membus.snoops                                0                       # Total snoops (count)
system.membus.snoopTraffic                          0                       # Total snoop traffic (bytes)
system.membus.snoop_fanout::samples            195453                       # Request fanout histogram
system.membus.snoop_fanout::mean                    0                       # Request fanout histogram
system.membus.snoop_fanout::stdev                   0                       # Request fanout histogram
system.membus.snoop_fanout::underflows              0      0.00%      0.00% # Request fanout histogram
system.membus.snoop_fanout::0                  195453    100.00%    100.00% # Request fanout histogram
system.membus.snoop_fanout::1                       0      0.00%    100.00% # Request fanout histogram
system.membus.snoop_fanout::overflows               0      0.00%    100.00% # Request fanout histogram
system.membus.snoop_fanout::min_value               0                       # Request fanout histogram
system.membus.snoop_fanout::max_value               0                       # Request fanout histogram
system.membus.snoop_fanout::total              195453                       # Request fanout histogram
system.membus.reqLayer4.occupancy           460583000                       # Layer occupancy (ticks)
system.membus.reqLayer4.utilization               3.0                       # Layer utilization (%)
system.membus.respLayer1.occupancy         1056214750                       # Layer occupancy (ticks)
system.membus.respLayer1.utilization              6.9                       # Layer utilization (%)
system.tol2bus.snoop_filter.tot_requests       480299                       # Total number of requests made to the snoop filter.
system.tol2bus.snoop_filter.hit_single_requests       240150                       # Number of requests hitting in the snoop filter with a single holder of the requested data.
system.tol2bus.snoop_filter.hit_multi_requests          574                       # Number of requests hitting in the snoop filter with multiple (>1) holders of the requested data.
system.tol2bus.snoop_filter.tot_snoops             16                       # Total number of snoops made to the snoop filter.
system.tol2bus.snoop_filter.hit_single_snoops           15                       # Number of snoops hitting in the snoop filter with a single holder of the requested data.
system.tol2bus.snoop_filter.hit_multi_snoops            1                       # Number of snoops hitting in the snoop filter with multiple (>1) holders of the requested data.
system.tol2bus.pwrStateResidencyTicks::UNDEFINED  15267344125                       # Cumulative time (in ticks) in various power states
system.tol2bus.trans_dist::ReadResp            239212                       # Transaction distribution
system.tol2bus.trans_dist::WritebackDirty         2658                       # Transaction distribution
system.tol2bus.trans_dist::WritebackClean            1                       # Transaction distribution
system.tol2bus.trans_dist::CleanEvict          432949                       # Transaction distribution
system.tol2bus.trans_dist::ReadExReq              937                       # Transaction distribution
system.tol2bus.trans_dist::ReadExResp             937                       # Transaction distribution
system.tol2bus.trans_dist::ReadCleanReq             1                       # Transaction distribution
system.tol2bus.trans_dist::ReadSharedReq       239212                       # Transaction distribution
system.tol2bus.pkt_count_system.cpu0.icache.mem_side::system.l2.cpu_side            3                       # Packet count per connected master and slave (bytes)
system.tol2bus.pkt_count_system.cpu0.dcache.mem_side::system.l2.cpu_side       720445                       # Packet count per connected master and slave (bytes)
system.tol2bus.pkt_count::total                720448                       # Packet count per connected master and slave (bytes)
system.tol2bus.pkt_size_system.cpu0.icache.mem_side::system.l2.cpu_side          128                       # Cumulative packet size per connected master and slave (bytes)
system.tol2bus.pkt_size_system.cpu0.dcache.mem_side::system.l2.cpu_side     15513536                       # Cumulative packet size per connected master and slave (bytes)
system.tol2bus.pkt_size::total               15513664                       # Cumulative packet size per connected master and slave (bytes)
system.tol2bus.snoops                          195459                       # Total snoops (count)
system.tol2bus.snoopTraffic                     26048                       # Total snoop traffic (bytes)
system.tol2bus.snoop_fanout::samples           435609                       # Request fanout histogram
system.tol2bus.snoop_fanout::mean            0.001359                       # Request fanout histogram
system.tol2bus.snoop_fanout::stdev           0.036902                       # Request fanout histogram
system.tol2bus.snoop_fanout::underflows             0      0.00%      0.00% # Request fanout histogram
system.tol2bus.snoop_fanout::0                 435018     99.86%     99.86% # Request fanout histogram
system.tol2bus.snoop_fanout::1                    590      0.14%    100.00% # Request fanout histogram
system.tol2bus.snoop_fanout::2                      1      0.00%    100.00% # Request fanout histogram
system.tol2bus.snoop_fanout::3                      0      0.00%    100.00% # Request fanout histogram
system.tol2bus.snoop_fanout::4                      0      0.00%    100.00% # Request fanout histogram
system.tol2bus.snoop_fanout::5                      0      0.00%    100.00% # Request fanout histogram
system.tol2bus.snoop_fanout::6                      0      0.00%    100.00% # Request fanout histogram
system.tol2bus.snoop_fanout::7                      0      0.00%    100.00% # Request fanout histogram
system.tol2bus.snoop_fanout::8                      0      0.00%    100.00% # Request fanout histogram
system.tol2bus.snoop_fanout::overflows              0      0.00%    100.00% # Request fanout histogram
system.tol2bus.snoop_fanout::min_value              0                       # Request fanout histogram
system.tol2bus.snoop_fanout::max_value              2                       # Request fanout histogram
system.tol2bus.snoop_fanout::total             435609                       # Request fanout histogram
system.tol2bus.reqLayer0.occupancy          242401500                       # Layer occupancy (ticks)
system.tol2bus.reqLayer0.utilization              1.6                       # Layer utilization (%)
system.tol2bus.respLayer0.occupancy              1500                       # Layer occupancy (ticks)
system.tol2bus.respLayer0.utilization             0.0                       # Layer utilization (%)
system.tol2bus.respLayer1.occupancy         360222000                       # Layer occupancy (ticks)
system.tol2bus.respLayer1.utilization             2.4                       # Layer utilization (%)

---------- End Simulation Statistics   ----------
