
---------- Begin Simulation Statistics ----------
sim_seconds                                  0.015267                       # Number of seconds simulated
sim_ticks                                 15267344125                       # Number of ticks simulated
final_tick                               7526800653625                       # Number of ticks from beginning of simulation (restored from checkpoints and never reset)
sim_freq                                 1000000000000                       # Frequency of simulated ticks
host_inst_rate                              128746806                       # Simulator instruction rate (inst/s)
host_op_rate                                240037593                       # Simulator op (including micro ops) rate (op/s)
host_tick_rate                              324498755                       # Simulator tick rate (ticks/s)
host_mem_usage                                2332536                       # Number of bytes of host memory used
host_seconds                                    47.05                       # Real time elapsed on the host
sim_insts                                  6057407126                       # Number of instructions simulated
sim_ops                                   11293528414                       # Number of ops (including micro ops) simulated
system.voltage_domain.voltage                       1                       # Voltage in Volts
system.clk_domain.clock                          1000                       # Clock period in ticks
system.mem_ctrls.pwrStateResidencyTicks::UNDEFINED  15267344125                       # Cumulative time (in ticks) in various power states
system.mem_ctrls.bytes_read::cpu0.inst             64                       # Number of bytes read from this memory
system.mem_ctrls.bytes_read::cpu0.data       12014784                       # Number of bytes read from this memory
system.mem_ctrls.bytes_read::total           12014848                       # Number of bytes read from this memory
system.mem_ctrls.bytes_inst_read::cpu0.inst           64                       # Number of instructions bytes read from this memory
system.mem_ctrls.bytes_inst_read::total            64                       # Number of instructions bytes read from this memory
system.mem_ctrls.bytes_written::writebacks        20352                       # Number of bytes written to this memory
system.mem_ctrls.bytes_written::total           20352                       # Number of bytes written to this memory
system.mem_ctrls.num_reads::cpu0.inst               1                       # Number of read requests responded to by this memory
system.mem_ctrls.num_reads::cpu0.data          187731                       # Number of read requests responded to by this memory
system.mem_ctrls.num_reads::total              187732                       # Number of read requests responded to by this memory
system.mem_ctrls.num_writes::writebacks           318                       # Number of write requests responded to by this memory
system.mem_ctrls.num_writes::total                318                       # Number of write requests responded to by this memory
system.mem_ctrls.bw_read::cpu0.inst              4192                       # Total read bandwidth from this memory (bytes/s)
system.mem_ctrls.bw_read::cpu0.data         786959664                       # Total read bandwidth from this memory (bytes/s)
system.mem_ctrls.bw_read::total             786963856                       # Total read bandwidth from this memory (bytes/s)
system.mem_ctrls.bw_inst_read::cpu0.inst         4192                       # Instruction read bandwidth from this memory (bytes/s)
system.mem_ctrls.bw_inst_read::total             4192                       # Instruction read bandwidth from this memory (bytes/s)
system.mem_ctrls.bw_write::writebacks         1333041                       # Write bandwidth from this memory (bytes/s)
system.mem_ctrls.bw_write::total              1333041                       # Write bandwidth from this memory (bytes/s)
system.mem_ctrls.bw_total::writebacks         1333041                       # Total bandwidth to/from this memory (bytes/s)
system.mem_ctrls.bw_total::cpu0.inst             4192                       # Total bandwidth to/from this memory (bytes/s)
system.mem_ctrls.bw_total::cpu0.data        786959664                       # Total bandwidth to/from this memory (bytes/s)
system.mem_ctrls.bw_total::total            788296897                       # Total bandwidth to/from this memory (bytes/s)
system.mem_ctrls.readReqs                      187731                       # Number of read requests accepted
system.mem_ctrls.writeReqs                        318                       # Number of write requests accepted
system.mem_ctrls.readBursts                    187731                       # Number of DRAM read bursts, including those serviced by the write queue
system.mem_ctrls.writeBursts                      318                       # Number of DRAM write bursts, including those merged in the write queue
system.mem_ctrls.bytesReadDRAM               12012608                       # Total number of bytes read from DRAM
system.mem_ctrls.bytesReadWrQ                    2176                       # Total number of bytes read from write queue
system.mem_ctrls.bytesWritten                   19584                       # Total number of bytes written to DRAM
system.mem_ctrls.bytesReadSys                12014784                       # Total read bytes from the system interface side
system.mem_ctrls.bytesWrittenSys                20352                       # Total written bytes from the system interface side
system.mem_ctrls.servicedByWrQ                     34                       # Number of DRAM read bursts serviced by the write queue
system.mem_ctrls.mergedWrBursts                     0                       # Number of DRAM write bursts merged with an existing one
system.mem_ctrls.neitherReadNorWriteReqs            0                       # Number of requests that are neither read nor write
system.mem_ctrls.perBankRdBursts::0             11572                       # Per bank write bursts
system.mem_ctrls.perBankRdBursts::1             11420                       # Per bank write bursts
system.mem_ctrls.perBankRdBursts::2             11487                       # Per bank write bursts
system.mem_ctrls.perBankRdBursts::3             12130                       # Per bank write bursts
system.mem_ctrls.perBankRdBursts::4             12345                       # Per bank write bursts
system.mem_ctrls.perBankRdBursts::5             12019                       # Per bank write bursts
system.mem_ctrls.perBankRdBursts::6             11763                       # Per bank write bursts
system.mem_ctrls.perBankRdBursts::7             11837                       # Per bank write bursts
system.mem_ctrls.perBankRdBursts::8             12063                       # Per bank write bursts
system.mem_ctrls.perBankRdBursts::9             11721                       # Per bank write bursts
system.mem_ctrls.perBankRdBursts::10            11356                       # Per bank write bursts
system.mem_ctrls.perBankRdBursts::11            11617                       # Per bank write bursts
system.mem_ctrls.perBankRdBursts::12            11652                       # Per bank write bursts
system.mem_ctrls.perBankRdBursts::13            11611                       # Per bank write bursts
system.mem_ctrls.perBankRdBursts::14            11458                       # Per bank write bursts
system.mem_ctrls.perBankRdBursts::15            11646                       # Per bank write bursts
system.mem_ctrls.perBankWrBursts::0                 0                       # Per bank write bursts
system.mem_ctrls.perBankWrBursts::1                 0                       # Per bank write bursts
system.mem_ctrls.perBankWrBursts::2                 0                       # Per bank write bursts
system.mem_ctrls.perBankWrBursts::3                83                       # Per bank write bursts
system.mem_ctrls.perBankWrBursts::4                 8                       # Per bank write bursts
system.mem_ctrls.perBankWrBursts::5                 0                       # Per bank write bursts
system.mem_ctrls.perBankWrBursts::6                 1                       # Per bank write bursts
system.mem_ctrls.perBankWrBursts::7                97                       # Per bank write bursts
system.mem_ctrls.perBankWrBursts::8                88                       # Per bank write bursts
system.mem_ctrls.perBankWrBursts::9                19                       # Per bank write bursts
system.mem_ctrls.perBankWrBursts::10                0                       # Per bank write bursts
system.mem_ctrls.perBankWrBursts::11                0                       # Per bank write bursts
system.mem_ctrls.perBankWrBursts::12                0                       # Per bank write bursts
system.mem_ctrls.perBankWrBursts::13               10                       # Per bank write bursts
system.mem_ctrls.perBankWrBursts::14                0                       # Per bank write bursts
system.mem_ctrls.perBankWrBursts::15                0                       # Per bank write bursts
system.mem_ctrls.numRdRetry                         0                       # Number of times read queue was full causing retry
system.mem_ctrls.numWrRetry                         0                       # Number of times write queue was full causing retry
system.mem_ctrls.totGap                   15267244500                       # Total gap between requests
system.mem_ctrls.readPktSize::0                     0                       # Read request sizes (log2)
system.mem_ctrls.readPktSize::1                     0                       # Read request sizes (log2)
system.mem_ctrls.readPktSize::2                     0                       # Read request sizes (log2)
system.mem_ctrls.readPktSize::3                     0                       # Read request sizes (log2)
system.mem_ctrls.readPktSize::4                     0                       # Read request sizes (log2)
system.mem_ctrls.readPktSize::5                     0                       # Read request sizes (log2)
system.mem_ctrls.readPktSize::6                187731                       # Read request sizes (log2)
system.mem_ctrls.writePktSize::0                    0                       # Write request sizes (log2)
system.mem_ctrls.writePktSize::1                    0                       # Write request sizes (log2)
system.mem_ctrls.writePktSize::2                    0                       # Write request sizes (log2)
system.mem_ctrls.writePktSize::3                    0                       # Write request sizes (log2)
system.mem_ctrls.writePktSize::4                    0                       # Write request sizes (log2)
system.mem_ctrls.writePktSize::5                    0                       # Write request sizes (log2)
system.mem_ctrls.writePktSize::6                  318                       # Write request sizes (log2)
system.mem_ctrls.rdQLenPdf::0                  142806                       # What read queue length does an incoming req see
system.mem_ctrls.rdQLenPdf::1                   42072                       # What read queue length does an incoming req see
system.mem_ctrls.rdQLenPdf::2                    2769                       # What read queue length does an incoming req see
system.mem_ctrls.rdQLenPdf::3                      49                       # What read queue length does an incoming req see
system.mem_ctrls.rdQLenPdf::4                       1                       # What read queue length does an incoming req see
system.mem_ctrls.rdQLenPdf::5                       0                       # What read queue length does an incoming req see
system.mem_ctrls.rdQLenPdf::6                       0                       # What read queue length does an incoming req see
system.mem_ctrls.rdQLenPdf::7                       0                       # What read queue length does an incoming req see
system.mem_ctrls.rdQLenPdf::8                       0                       # What read queue length does an incoming req see
system.mem_ctrls.rdQLenPdf::9                       0                       # What read queue length does an incoming req see
system.mem_ctrls.rdQLenPdf::10                      0                       # What read queue length does an incoming req see
system.mem_ctrls.rdQLenPdf::11                      0                       # What read queue length does an incoming req see
system.mem_ctrls.rdQLenPdf::12                      0                       # What read queue length does an incoming req see
system.mem_ctrls.rdQLenPdf::13                      0                       # What read queue length does an incoming req see
system.mem_ctrls.rdQLenPdf::14                      0                       # What read queue length does an incoming req see
system.mem_ctrls.rdQLenPdf::15                      0                       # What read queue length does an incoming req see
system.mem_ctrls.rdQLenPdf::16                      0                       # What read queue length does an incoming req see
system.mem_ctrls.rdQLenPdf::17                      0                       # What read queue length does an incoming req see
system.mem_ctrls.rdQLenPdf::18                      0                       # What read queue length does an incoming req see
system.mem_ctrls.rdQLenPdf::19                      0                       # What read queue length does an incoming req see
system.mem_ctrls.rdQLenPdf::20                      0                       # What read queue length does an incoming req see
system.mem_ctrls.rdQLenPdf::21                      0                       # What read queue length does an incoming req see
system.mem_ctrls.rdQLenPdf::22                      0                       # What read queue length does an incoming req see
system.mem_ctrls.rdQLenPdf::23                      0                       # What read queue length does an incoming req see
system.mem_ctrls.rdQLenPdf::24                      0                       # What read queue length does an incoming req see
system.mem_ctrls.rdQLenPdf::25                      0                       # What read queue length does an incoming req see
system.mem_ctrls.rdQLenPdf::26                      0                       # What read queue length does an incoming req see
system.mem_ctrls.rdQLenPdf::27                      0                       # What read queue length does an incoming req see
system.mem_ctrls.rdQLenPdf::28                      0                       # What read queue length does an incoming req see
system.mem_ctrls.rdQLenPdf::29                      0                       # What read queue length does an incoming req see
system.mem_ctrls.rdQLenPdf::30                      0                       # What read queue length does an incoming req see
system.mem_ctrls.rdQLenPdf::31                      0                       # What read queue length does an incoming req see
system.mem_ctrls.wrQLenPdf::0                       0                       # What write queue length does an incoming req see
system.mem_ctrls.wrQLenPdf::1                       0                       # What write queue length does an incoming req see
system.mem_ctrls.wrQLenPdf::2                       0                       # What write queue length does an incoming req see
system.mem_ctrls.wrQLenPdf::3                       0                       # What write queue length does an incoming req see
system.mem_ctrls.wrQLenPdf::4                       0                       # What write queue length does an incoming req see
system.mem_ctrls.wrQLenPdf::5                       0                       # What write queue length does an incoming req see
system.mem_ctrls.wrQLenPdf::6                       0                       # What write queue length does an incoming req see
system.mem_ctrls.wrQLenPdf::7                       0                       # What write queue length does an incoming req see
system.mem_ctrls.wrQLenPdf::8                       0                       # What write queue length does an incoming req see
system.mem_ctrls.wrQLenPdf::9                       0                       # What write queue length does an incoming req see
system.mem_ctrls.wrQLenPdf::10                      0                       # What write queue length does an incoming req see
system.mem_ctrls.wrQLenPdf::11                      0                       # What write queue length does an incoming req see
system.mem_ctrls.wrQLenPdf::12                      0                       # What write queue length does an incoming req see
system.mem_ctrls.wrQLenPdf::13                      0                       # What write queue length does an incoming req see
system.mem_ctrls.wrQLenPdf::14                      0                       # What write queue length does an incoming req see
system.mem_ctrls.wrQLenPdf::15                      1                       # What write queue length does an incoming req see
system.mem_ctrls.wrQLenPdf::16                      1                       # What write queue length does an incoming req see
system.mem_ctrls.wrQLenPdf::17                     19                       # What write queue length does an incoming req see
system.mem_ctrls.wrQLenPdf::18                     20                       # What write queue length does an incoming req see
system.mem_ctrls.wrQLenPdf::19                     20                       # What write queue length does an incoming req see
system.mem_ctrls.wrQLenPdf::20                     20                       # What write queue length does an incoming req see
system.mem_ctrls.wrQLenPdf::21                     20                       # What write queue length does an incoming req see
system.mem_ctrls.wrQLenPdf::22                     20                       # What write queue length does an incoming req see
system.mem_ctrls.wrQLenPdf::23                     20                       # What write queue length does an incoming req see
system.mem_ctrls.wrQLenPdf::24                     20                       # What write queue length does an incoming req see
system.mem_ctrls.wrQLenPdf::25                     20                       # What write queue length does an incoming req see
system.mem_ctrls.wrQLenPdf::26                     20                       # What write queue length does an incoming req see
system.mem_ctrls.wrQLenPdf::27                     20                       # What write queue length does an incoming req see
system.mem_ctrls.wrQLenPdf::28                     20                       # What write queue length does an incoming req see
system.mem_ctrls.wrQLenPdf::29                     20                       # What write queue length does an incoming req see
system.mem_ctrls.wrQLenPdf::30                     19                       # What write queue length does an incoming req see
system.mem_ctrls.wrQLenPdf::31                     19                       # What write queue length does an incoming req see
system.mem_ctrls.wrQLenPdf::32                     19                       # What write queue length does an incoming req see
system.mem_ctrls.wrQLenPdf::33                      0                       # What write queue length does an incoming req see
system.mem_ctrls.wrQLenPdf::34                      0                       # What write queue length does an incoming req see
system.mem_ctrls.wrQLenPdf::35                      0                       # What write queue length does an incoming req see
system.mem_ctrls.wrQLenPdf::36                      0                       # What write queue length does an incoming req see
system.mem_ctrls.wrQLenPdf::37                      0                       # What write queue length does an incoming req see
system.mem_ctrls.wrQLenPdf::38                      0                       # What write queue length does an incoming req see
system.mem_ctrls.wrQLenPdf::39                      0                       # What write queue length does an incoming req see
system.mem_ctrls.wrQLenPdf::40                      0                       # What write queue length does an incoming req see
system.mem_ctrls.wrQLenPdf::41                      0                       # What write queue length does an incoming req see
system.mem_ctrls.wrQLenPdf::42                      0                       # What write queue length does an incoming req see
system.mem_ctrls.wrQLenPdf::43                      0                       # What write queue length does an incoming req see
system.mem_ctrls.wrQLenPdf::44                      0                       # What write queue length does an incoming req see
system.mem_ctrls.wrQLenPdf::45                      0                       # What write queue length does an incoming req see
system.mem_ctrls.wrQLenPdf::46                      0                       # What write queue length does an incoming req see
system.mem_ctrls.wrQLenPdf::47                      0                       # What write queue length does an incoming req see
system.mem_ctrls.wrQLenPdf::48                      0                       # What write queue length does an incoming req see
system.mem_ctrls.wrQLenPdf::49                      0                       # What write queue length does an incoming req see
system.mem_ctrls.wrQLenPdf::50                      0                       # What write queue length does an incoming req see
system.mem_ctrls.wrQLenPdf::51                      0                       # What write queue length does an incoming req see
system.mem_ctrls.wrQLenPdf::52                      0                       # What write queue length does an incoming req see
system.mem_ctrls.wrQLenPdf::53                      0                       # What write queue length does an incoming req see
system.mem_ctrls.wrQLenPdf::54                      0                       # What write queue length does an incoming req see
system.mem_ctrls.wrQLenPdf::55                      0                       # What write queue length does an incoming req see
system.mem_ctrls.wrQLenPdf::56                      0                       # What write queue length does an incoming req see
system.mem_ctrls.wrQLenPdf::57                      0                       # What write queue length does an incoming req see
system.mem_ctrls.wrQLenPdf::58                      0                       # What write queue length does an incoming req see
system.mem_ctrls.wrQLenPdf::59                      0                       # What write queue length does an incoming req see
system.mem_ctrls.wrQLenPdf::60                      0                       # What write queue length does an incoming req see
system.mem_ctrls.wrQLenPdf::61                      0                       # What write queue length does an incoming req see
system.mem_ctrls.wrQLenPdf::62                      0                       # What write queue length does an incoming req see
system.mem_ctrls.wrQLenPdf::63                      0                       # What write queue length does an incoming req see
system.mem_ctrls.bytesPerActivate::samples        96595                       # Bytes accessed per row activation
system.mem_ctrls.bytesPerActivate::mean    124.552699                       # Bytes accessed per row activation
system.mem_ctrls.bytesPerActivate::gmean   107.203942                       # Bytes accessed per row activation
system.mem_ctrls.bytesPerActivate::stdev    74.961281                       # Bytes accessed per row activation
system.mem_ctrls.bytesPerActivate::0-127        44119     45.67%     45.67% # Bytes accessed per row activation
system.mem_ctrls.bytesPerActivate::128-255        42578     44.08%     89.75% # Bytes accessed per row activation
system.mem_ctrls.bytesPerActivate::256-383         8605      8.91%     98.66% # Bytes accessed per row activation
system.mem_ctrls.bytesPerActivate::384-511         1127      1.17%     99.83% # Bytes accessed per row activation
system.mem_ctrls.bytesPerActivate::512-639          140      0.14%     99.97% # Bytes accessed per row activation
system.mem_ctrls.bytesPerActivate::640-767           12      0.01%     99.99% # Bytes accessed per row activation
system.mem_ctrls.bytesPerActivate::768-895            7      0.01%     99.99% # Bytes accessed per row activation
system.mem_ctrls.bytesPerActivate::896-1023            1      0.00%     99.99% # Bytes accessed per row activation
system.mem_ctrls.bytesPerActivate::1024-1151            6      0.01%    100.00% # Bytes accessed per row activation
system.mem_ctrls.bytesPerActivate::total        96595                       # Bytes accessed per row activation
system.mem_ctrls.rdPerTurnAround::samples           19                       # Reads before turning the bus around for writes
system.mem_ctrls.rdPerTurnAround::mean    9429.315789                       # Reads before turning the bus around for writes
system.mem_ctrls.rdPerTurnAround::gmean   9169.603550                       # Reads before turning the bus around for writes
system.mem_ctrls.rdPerTurnAround::stdev   2299.189255                       # Reads before turning the bus around for writes
system.mem_ctrls.rdPerTurnAround::6144-6655            1      5.26%      5.26% # Reads before turning the bus around for writes
system.mem_ctrls.rdPerTurnAround::6656-7167            2     10.53%     15.79% # Reads before turning the bus around for writes
system.mem_ctrls.rdPerTurnAround::7168-7679            3     15.79%     31.58% # Reads before turning the bus around for writes
system.mem_ctrls.rdPerTurnAround::7680-8191            2     10.53%     42.11% # Reads before turning the bus around for writes
system.mem_ctrls.rdPerTurnAround::8704-9215            1      5.26%     47.37% # Reads before turning the bus around for writes
system.mem_ctrls.rdPerTurnAround::9216-9727            1      5.26%     52.63% # Reads before turning the bus around for writes
system.mem_ctrls.rdPerTurnAround::9728-10239            2     10.53%     63.16% # Reads before turning the bus around for writes
system.mem_ctrls.rdPerTurnAround::10240-10751            1      5.26%     68.42% # Reads before turning the bus around for writes
system.mem_ctrls.rdPerTurnAround::10752-11263            2     10.53%     78.95% # Reads before turning the bus around for writes
system.mem_ctrls.rdPerTurnAround::11264-11775            2     10.53%     89.47% # Reads before turning the bus around for writes
system.mem_ctrls.rdPerTurnAround::13312-13823            2     10.53%    100.00% # Reads before turning the bus around for writes
system.mem_ctrls.rdPerTurnAround::total            19                       # Reads before turning the bus around for writes
system.mem_ctrls.wrPerTurnAround::samples           19                       # Writes before turning the bus around for reads
system.mem_ctrls.wrPerTurnAround::mean      16.105263                       # Writes before turning the bus around for reads
system.mem_ctrls.wrPerTurnAround::gmean     16.099494                       # Writes before turning the bus around for reads
system.mem_ctrls.wrPerTurnAround::stdev      0.458831                       # Writes before turning the bus around for reads
system.mem_ctrls.wrPerTurnAround::16               18     94.74%     94.74% # Writes before turning the bus around for reads
system.mem_ctrls.wrPerTurnAround::18                1      5.26%    100.00% # Writes before turning the bus around for reads
system.mem_ctrls.wrPerTurnAround::total            19                       # Writes before turning the bus around for reads
system.mem_ctrls.totQLat                   4692721000                       # Total ticks spent queuing
system.mem_ctrls.totMemAccLat              8212039750                       # Total ticks spent from burst creation until serviced by the DRAM
system.mem_ctrls.totBusLat                  938485000                       # Total ticks spent in databus transfers
system.mem_ctrls.avgQLat                     25001.58                       # Average queueing delay per DRAM burst
system.mem_ctrls.avgBusLat                    5000.00                       # Average bus latency per DRAM burst
system.mem_ctrls.avgMemAccLat                43751.58                       # Average memory access latency per DRAM burst
system.mem_ctrls.avgRdBW                       786.82                       # Average DRAM read bandwidth in MiByte/s
system.mem_ctrls.avgWrBW                         1.28                       # Average achieved write bandwidth in MiByte/s
system.mem_ctrls.avgRdBWSys                    786.96                       # Average system read bandwidth in MiByte/s
system.mem_ctrls.avgWrBWSys                      1.33                       # Average system write bandwidth in MiByte/s
system.mem_ctrls.peakBW                      12800.00                       # Theoretical peak bandwidth in MiByte/s
system.mem_ctrls.busUtil                         6.16                       # Data bus utilization in percentage
system.mem_ctrls.busUtilRead                     6.15                       # Data bus utilization in percentage for reads
system.mem_ctrls.busUtilWrite                    0.01                       # Data bus utilization in percentage for writes
system.mem_ctrls.avgRdQLen                       1.31                       # Average read queue length when enqueuing
system.mem_ctrls.avgWrQLen                      25.15                       # Average write queue length when enqueuing
system.mem_ctrls.readRowHits                    91140                       # Number of row buffer hits during reads
system.mem_ctrls.writeRowHits                     261                       # Number of row buffer hits during writes
system.mem_ctrls.readRowHitRate                 48.56                       # Row buffer hit rate for reads
system.mem_ctrls.writeRowHitRate                82.08                       # Row buffer hit rate for writes
system.mem_ctrls.avgGap                      81187.59                       # Average gap between requests
system.mem_ctrls.pageHitRate                    48.61                       # Row buffer hit rate, read and write combined
system.mem_ctrls_0.actEnergy                346875480                       # Energy for activate commands per rank (pJ)
system.mem_ctrls_0.preEnergy                184372485                       # Energy for precharge commands per rank (pJ)
system.mem_ctrls_0.readEnergy               675258360                       # Energy for read commands per rank (pJ)
system.mem_ctrls_0.writeEnergy                 986580                       # Energy for write commands per rank (pJ)
system.mem_ctrls_0.refreshEnergy         1205923680.000000                       # Energy for refresh commands per rank (pJ)
system.mem_ctrls_0.actBackEnergy           1603288020                       # Energy for active background per rank (pJ)
system.mem_ctrls_0.preBackEnergy             24800640                       # Energy for precharge background per rank (pJ)
system.mem_ctrls_0.actPowerDownEnergy      5204061240                       # Energy for active power-down per rank (pJ)
system.mem_ctrls_0.prePowerDownEnergy        99192000                       # Energy for precharge power-down per rank (pJ)
system.mem_ctrls_0.selfRefreshEnergy          5508420                       # Energy for self refresh per rank (pJ)
system.mem_ctrls_0.totalEnergy             9350266905                       # Total energy per rank (pJ)
system.mem_ctrls_0.averagePower            612.435721                       # Core power per rank (mW)
system.mem_ctrls_0.totalIdleTime          11686980000                       # Total Idle time Per DRAM Rank
system.mem_ctrls_0.memoryStateTime::IDLE     10197500                       # Time in different power states
system.mem_ctrls_0.memoryStateTime::REF     510138000                       # Time in different power states
system.mem_ctrls_0.memoryStateTime::SREF     16049750                       # Time in different power states
system.mem_ctrls_0.memoryStateTime::PRE_PDN    258218500                       # Time in different power states
system.mem_ctrls_0.memoryStateTime::ACT    3059980750                       # Time in different power states
system.mem_ctrls_0.memoryStateTime::ACT_PDN  11412759625                       # Time in different power states
system.mem_ctrls_1.actEnergy                342862800                       # Energy for activate commands per rank (pJ)
system.mem_ctrls_1.preEnergy                182205540                       # Energy for precharge commands per rank (pJ)
system.mem_ctrls_1.readEnergy               664905360                       # Energy for read commands per rank (pJ)
system.mem_ctrls_1.writeEnergy                 610740                       # Energy for write commands per rank (pJ)
system.mem_ctrls_1.refreshEnergy         1205309040.000000                       # Energy for refresh commands per rank (pJ)
system.mem_ctrls_1.actBackEnergy           1583621310                       # Energy for active background per rank (pJ)
system.mem_ctrls_1.preBackEnergy             24688320                       # Energy for precharge background per rank (pJ)
system.mem_ctrls_1.actPowerDownEnergy      5192241150                       # Energy for active power-down per rank (pJ)
system.mem_ctrls_1.prePowerDownEnergy       123250080                       # Energy for precharge power-down per rank (pJ)
system.mem_ctrls_1.selfRefreshEnergy          7647360                       # Energy for self refresh per rank (pJ)
system.mem_ctrls_1.totalEnergy             9327408540                       # Total energy per rank (pJ)
system.mem_ctrls_1.averagePower            610.938514                       # Core power per rank (mW)
system.mem_ctrls_1.totalIdleTime          11729985250                       # Total Idle time Per DRAM Rank
system.mem_ctrls_1.memoryStateTime::IDLE     10377500                       # Time in different power states
system.mem_ctrls_1.memoryStateTime::REF     509977500                       # Time in different power states
system.mem_ctrls_1.memoryStateTime::SREF     22511500                       # Time in different power states
system.mem_ctrls_1.memoryStateTime::PRE_PDN    321039000                       # Time in different power states
system.mem_ctrls_1.memoryStateTime::ACT    3016652000                       # Time in different power states
system.mem_ctrls_1.memoryStateTime::ACT_PDN  11386786625                       # Time in different power states
system.pwrStateResidencyTicks::UNDEFINED  15267344125                       # Cumulative time (in ticks) in various power states
system.cpu0.branchPred.lookups                1631435                       # Number of BP lookups
system.cpu0.branchPred.condPredicted          1631435                       # Number of conditional branches predicted
system.cpu0.branchPred.condIncorrect            59942                       # Number of conditional branches incorrect
system.cpu0.branchPred.BTBLookups             1206932                       # Number of BTB lookups
system.cpu0.branchPred.BTBHits                      0                       # Number of BTB hits
system.cpu0.branchPred.BTBCorrect                   0                       # Number of correct BTB predictions (this stat may not work properly.
system.cpu0.branchPred.BTBHitPct             0.000000                       # BTB Hit Percentage
system.cpu0.branchPred.usedRAS                  34616                       # Number of times the RAS was used to get a target.
system.cpu0.branchPred.RASInCorrect              4705                       # Number of incorrect RAS predictions.
system.cpu0.branchPred.indirectLookups        1206932                       # Number of indirect predictor lookups.
system.cpu0.branchPred.indirectHits            716581                       # Number of indirect target hits.
system.cpu0.branchPred.indirectMisses          490351                       # Number of indirect misses.
system.cpu0.branchPredindirectMispredicted        16905                       # Number of mispredicted indirect branches.
system.cpu_voltage_domain.voltage                   1                       # Voltage in Volts
system.cpu_clk_domain.clock                       500                       # Clock period in ticks
system.cpu0.dtb.walker.pwrStateResidencyTicks::UNDEFINED  15267344125                       # Cumulative time (in ticks) in various power states
system.cpu0.dtb.rdAccesses                     752796                       # TLB accesses on read requests
system.cpu0.dtb.wrAccesses                      36298                       # TLB accesses on write requests
system.cpu0.dtb.rdMisses                       166744                       # TLB misses on read requests
system.cpu0.dtb.wrMisses                          683                       # TLB misses on write requests
system.cpu0.apic_clk_domain.clock                8000                       # Clock period in ticks
system.cpu0.interrupts.pwrStateResidencyTicks::UNDEFINED  15267344125                       # Cumulative time (in ticks) in various power states
system.cpu0.itb.walker.pwrStateResidencyTicks::UNDEFINED  15267344125                       # Cumulative time (in ticks) in various power states
system.cpu0.itb.rdAccesses                          0                       # TLB accesses on read requests
system.cpu0.itb.wrAccesses                    1413148                       # TLB accesses on write requests
system.cpu0.itb.rdMisses                            0                       # TLB misses on read requests
system.cpu0.itb.wrMisses                         2633                       # TLB misses on write requests
system.cpu0.workload.numSyscalls                    1                       # Number of system calls
system.cpu0.pwrStateResidencyTicks::ON    15267344125                       # Cumulative time (in ticks) in various power states
system.cpu0.numCycles                        30534688                       # number of cpu cycles simulated
system.cpu0.numWorkItemsStarted                     0                       # number of work items this cpu started
system.cpu0.numWorkItemsCompleted                   0                       # number of work items this cpu completed
system.cpu0.fetch.icacheStallCycles           1439749                       # Number of cycles fetch is stalled on an Icache miss
system.cpu0.fetch.Insts                       4606426                       # Number of instructions fetch has processed
system.cpu0.fetch.Branches                    1631435                       # Number of branches that fetch encountered
system.cpu0.fetch.predictedBranches            751197                       # Number of branches that fetch has predicted taken
system.cpu0.fetch.Cycles                     28969682                       # Number of cycles fetch has run and was not squashing or blocked
system.cpu0.fetch.SquashCycles                 121550                       # Number of cycles fetch has spent squashing
system.cpu0.fetch.TlbCycles                      2525                       # Number of cycles fetch has spent waiting for tlb
system.cpu0.fetch.MiscStallCycles                 605                       # Number of cycles fetch has spent waiting on interrupts, or bad addresses, or out of MSHRs
system.cpu0.fetch.PendingTrapStallCycles        25382                       # Number of stall cycles due to pending traps
system.cpu0.fetch.CacheLines                  1410515                       # Number of cache lines fetched
system.cpu0.fetch.IcacheSquashes                 6578                       # Number of outstanding Icache misses that were squashed
system.cpu0.fetch.ItlbSquashes                      3                       # Number of outstanding ITLB misses that were squashed
system.cpu0.fetch.rateDist::samples          30498718                       # Number of instructions fetched each cycle (Total)
system.cpu0.fetch.rateDist::mean             0.302990                       # Number of instructions fetched each cycle (Total)
system.cpu0.fetch.rateDist::stdev            1.380332                       # Number of instructions fetched each cycle (Total)
system.cpu0.fetch.rateDist::underflows              0      0.00%      0.00% # Number of instructions fetched each cycle (Total)
system.cpu0.fetch.rateDist::0                28668701     94.00%     94.00% # Number of instructions fetched each cycle (Total)
system.cpu0.fetch.rateDist::1                   15590      0.05%     94.05% # Number of instructions fetched each cycle (Total)
system.cpu0.fetch.rateDist::2                  724517      2.38%     96.43% # Number of instructions fetched each cycle (Total)
system.cpu0.fetch.rateDist::3                   18712      0.06%     96.49% # Number of instructions fetched each cycle (Total)
system.cpu0.fetch.rateDist::4                  129295      0.42%     96.91% # Number of instructions fetched each cycle (Total)
system.cpu0.fetch.rateDist::5                   48910      0.16%     97.07% # Number of instructions fetched each cycle (Total)
system.cpu0.fetch.rateDist::6                   84381      0.28%     97.35% # Number of instructions fetched each cycle (Total)
system.cpu0.fetch.rateDist::7                   16858      0.06%     97.40% # Number of instructions fetched each cycle (Total)
system.cpu0.fetch.rateDist::8                  791754      2.60%    100.00% # Number of instructions fetched each cycle (Total)
system.cpu0.fetch.rateDist::overflows               0      0.00%    100.00% # Number of instructions fetched each cycle (Total)
system.cpu0.fetch.rateDist::min_value               0                       # Number of instructions fetched each cycle (Total)
system.cpu0.fetch.rateDist::max_value               8                       # Number of instructions fetched each cycle (Total)
system.cpu0.fetch.rateDist::total            30498718                       # Number of instructions fetched each cycle (Total)
system.cpu0.fetch.branchRate                 0.053429                       # Number of branch fetches per cycle
system.cpu0.fetch.rate                       0.150859                       # Number of inst fetches per cycle
system.cpu0.decode.IdleCycles                  683239                       # Number of cycles decode is idle
system.cpu0.decode.BlockedCycles             28573391                       # Number of cycles decode is blocked
system.cpu0.decode.RunCycles                   852776                       # Number of cycles decode is running
system.cpu0.decode.UnblockCycles               328537                       # Number of cycles decode is unblocking
system.cpu0.decode.SquashCycles                 60775                       # Number of cycles decode is squashing
system.cpu0.decode.DecodedInsts               7611607                       # Number of instructions handled by decode
system.cpu0.rename.SquashCycles                 60775                       # Number of cycles rename is squashing
system.cpu0.rename.IdleCycles                  777556                       # Number of cycles rename is idle
system.cpu0.rename.BlockCycles               27256233                       # Number of cycles rename is blocking
system.cpu0.rename.serializeStallCycles         15084                       # count of cycles rename stalled for serializing inst
system.cpu0.rename.RunCycles                  1006428                       # Number of cycles rename is running
system.cpu0.rename.UnblockCycles              1382642                       # Number of cycles rename is unblocking
system.cpu0.rename.RenamedInsts               7328902                       # Number of instructions processed by rename
system.cpu0.rename.ROBFullEvents                56284                       # Number of times rename has blocked due to ROB full
system.cpu0.rename.IQFullEvents               1126666                       # Number of times rename has blocked due to IQ full
system.cpu0.rename.LQFullEvents                217061                       # Number of times rename has blocked due to LQ full
system.cpu0.rename.SQFullEvents                  1260                       # Number of times rename has blocked due to SQ full
system.cpu0.rename.RenamedOperands            8769131                       # Number of destination operands rename has renamed
system.cpu0.rename.RenameLookups             20629379                       # Number of register rename lookups that rename has made
system.cpu0.rename.int_rename_lookups         9470300                       # Number of integer rename lookups
system.cpu0.rename.fp_rename_lookups            31725                       # Number of floating rename lookups
system.cpu0.rename.CommittedMaps              3256971                       # Number of HB maps that are committed
system.cpu0.rename.UndoneMaps                 5512072                       # Number of HB maps that are undone due to squashing
system.cpu0.rename.serializingInsts               223                       # count of serializing insts renamed
system.cpu0.rename.tempSerializingInsts           288                       # count of temporary serializing insts renamed
system.cpu0.rename.skidInsts                  2106825                       # count of insts added to the skid buffer
system.cpu0.memDep0.insertedLoads             1362877                       # Number of loads inserted to the mem dependence unit.
system.cpu0.memDep0.insertedStores              51400                       # Number of stores inserted to the mem dependence unit.
system.cpu0.memDep0.conflictingLoads             3667                       # Number of conflicting loads.
system.cpu0.memDep0.conflictingStores            3107                       # Number of conflicting stores.
system.cpu0.iq.iqInstsAdded                   7008595                       # Number of instructions added to the IQ (excludes non-spec)
system.cpu0.iq.iqNonSpecInstsAdded               2827                       # Number of non-speculative instructions added to the IQ
system.cpu0.iq.iqInstsIssued                  4960530                       # Number of instructions issued
system.cpu0.iq.iqSquashedInstsIssued             4686                       # Number of squashed instructions issued
system.cpu0.iq.iqSquashedInstsExamined        4294833                       # Number of squashed instructions iterated over during squash; mainly for profiling
system.cpu0.iq.iqSquashedOperandsExamined      9466923                       # Number of squashed operands that are examined and possibly removed from graph
system.cpu0.iq.iqSquashedNonSpecRemoved          2826                       # Number of squashed non-spec instructions that were removed
system.cpu0.iq.issued_per_cycle::samples     30498718                       # Number of insts issued each cycle
system.cpu0.iq.issued_per_cycle::mean        0.162647                       # Number of insts issued each cycle
system.cpu0.iq.issued_per_cycle::stdev       0.723239                       # Number of insts issued each cycle
system.cpu0.iq.issued_per_cycle::underflows            0      0.00%      0.00% # Number of insts issued each cycle
system.cpu0.iq.issued_per_cycle::0           28405347     93.14%     93.14% # Number of insts issued each cycle
system.cpu0.iq.issued_per_cycle::1             850835      2.79%     95.93% # Number of insts issued each cycle
system.cpu0.iq.issued_per_cycle::2             450949      1.48%     97.40% # Number of insts issued each cycle
system.cpu0.iq.issued_per_cycle::3             299929      0.98%     98.39% # Number of insts issued each cycle
system.cpu0.iq.issued_per_cycle::4             310229      1.02%     99.41% # Number of insts issued each cycle
system.cpu0.iq.issued_per_cycle::5              77537      0.25%     99.66% # Number of insts issued each cycle
system.cpu0.iq.issued_per_cycle::6              65335      0.21%     99.87% # Number of insts issued each cycle
system.cpu0.iq.issued_per_cycle::7              21057      0.07%     99.94% # Number of insts issued each cycle
system.cpu0.iq.issued_per_cycle::8              17500      0.06%    100.00% # Number of insts issued each cycle
system.cpu0.iq.issued_per_cycle::overflows            0      0.00%    100.00% # Number of insts issued each cycle
system.cpu0.iq.issued_per_cycle::min_value            0                       # Number of insts issued each cycle
system.cpu0.iq.issued_per_cycle::max_value            8                       # Number of insts issued each cycle
system.cpu0.iq.issued_per_cycle::total       30498718                       # Number of insts issued each cycle
system.cpu0.iq.fu_full::No_OpClass                  0      0.00%      0.00% # attempts to use FU when none available
system.cpu0.iq.fu_full::IntAlu                   8322     66.81%     66.81% # attempts to use FU when none available
system.cpu0.iq.fu_full::IntMult                     0      0.00%     66.81% # attempts to use FU when none available
system.cpu0.iq.fu_full::IntDiv                      0      0.00%     66.81% # attempts to use FU when none available
system.cpu0.iq.fu_full::FloatAdd                  894      7.18%     73.99% # attempts to use FU when none available
system.cpu0.iq.fu_full::FloatCmp                    0      0.00%     73.99% # attempts to use FU when none available
system.cpu0.iq.fu_full::FloatCvt                    0      0.00%     73.99% # attempts to use FU when none available
system.cpu0.iq.fu_full::FloatMult                   0      0.00%     73.99% # attempts to use FU when none available
system.cpu0.iq.fu_full::FloatMultAcc                0      0.00%     73.99% # attempts to use FU when none available
system.cpu0.iq.fu_full::FloatDiv                    0      0.00%     73.99% # attempts to use FU when none available
system.cpu0.iq.fu_full::FloatMisc                   0      0.00%     73.99% # attempts to use FU when none available
system.cpu0.iq.fu_full::FloatSqrt                   0      0.00%     73.99% # attempts to use FU when none available
system.cpu0.iq.fu_full::SimdAdd                     0      0.00%     73.99% # attempts to use FU when none available
system.cpu0.iq.fu_full::SimdAddAcc                  0      0.00%     73.99% # attempts to use FU when none available
system.cpu0.iq.fu_full::SimdAlu                     0      0.00%     73.99% # attempts to use FU when none available
system.cpu0.iq.fu_full::SimdCmp                     0      0.00%     73.99% # attempts to use FU when none available
system.cpu0.iq.fu_full::SimdCvt                     0      0.00%     73.99% # attempts to use FU when none available
system.cpu0.iq.fu_full::SimdMisc                    0      0.00%     73.99% # attempts to use FU when none available
system.cpu0.iq.fu_full::SimdMult                    0      0.00%     73.99% # attempts to use FU when none available
system.cpu0.iq.fu_full::SimdMultAcc                 0      0.00%     73.99% # attempts to use FU when none available
system.cpu0.iq.fu_full::SimdShift                   0      0.00%     73.99% # attempts to use FU when none available
system.cpu0.iq.fu_full::SimdShiftAcc                0      0.00%     73.99% # attempts to use FU when none available
system.cpu0.iq.fu_full::SimdSqrt                    0      0.00%     73.99% # attempts to use FU when none available
system.cpu0.iq.fu_full::SimdFloatAdd                0      0.00%     73.99% # attempts to use FU when none available
system.cpu0.iq.fu_full::SimdFloatAlu                0      0.00%     73.99% # attempts to use FU when none available
system.cpu0.iq.fu_full::SimdFloatCmp                0      0.00%     73.99% # attempts to use FU when none available
system.cpu0.iq.fu_full::SimdFloatCvt                0      0.00%     73.99% # attempts to use FU when none available
system.cpu0.iq.fu_full::SimdFloatDiv                0      0.00%     73.99% # attempts to use FU when none available
system.cpu0.iq.fu_full::SimdFloatMisc               0      0.00%     73.99% # attempts to use FU when none available
system.cpu0.iq.fu_full::SimdFloatMult               0      0.00%     73.99% # attempts to use FU when none available
system.cpu0.iq.fu_full::SimdFloatMultAcc            0      0.00%     73.99% # attempts to use FU when none available
system.cpu0.iq.fu_full::SimdFloatSqrt               0      0.00%     73.99% # attempts to use FU when none available
system.cpu0.iq.fu_full::MemRead                  2873     23.07%     97.05% # attempts to use FU when none available
system.cpu0.iq.fu_full::MemWrite                  201      1.61%     98.67% # attempts to use FU when none available
system.cpu0.iq.fu_full::FloatMemRead              143      1.15%     99.82% # attempts to use FU when none available
system.cpu0.iq.fu_full::FloatMemWrite              23      0.18%    100.00% # attempts to use FU when none available
system.cpu0.iq.fu_full::IprAccess                   0      0.00%    100.00% # attempts to use FU when none available
system.cpu0.iq.fu_full::InstPrefetch                0      0.00%    100.00% # attempts to use FU when none available
system.cpu0.iq.FU_type_0::No_OpClass            12152      0.24%      0.24% # Type of FU issued
system.cpu0.iq.FU_type_0::IntAlu              4106025     82.77%     83.02% # Type of FU issued
system.cpu0.iq.FU_type_0::IntMult                 494      0.01%     83.03% # Type of FU issued
system.cpu0.iq.FU_type_0::IntDiv                 7756      0.16%     83.19% # Type of FU issued
system.cpu0.iq.FU_type_0::FloatAdd              11286      0.23%     83.41% # Type of FU issued
system.cpu0.iq.FU_type_0::FloatCmp                  0      0.00%     83.41% # Type of FU issued
system.cpu0.iq.FU_type_0::FloatCvt                  0      0.00%     83.41% # Type of FU issued
system.cpu0.iq.FU_type_0::FloatMult                 0      0.00%     83.41% # Type of FU issued
system.cpu0.iq.FU_type_0::FloatMultAcc              0      0.00%     83.41% # Type of FU issued
system.cpu0.iq.FU_type_0::FloatDiv                  0      0.00%     83.41% # Type of FU issued
system.cpu0.iq.FU_type_0::FloatMisc                 0      0.00%     83.41% # Type of FU issued
system.cpu0.iq.FU_type_0::FloatSqrt                 0      0.00%     83.41% # Type of FU issued
system.cpu0.iq.FU_type_0::SimdAdd                   0      0.00%     83.41% # Type of FU issued
system.cpu0.iq.FU_type_0::SimdAddAcc                0      0.00%     83.41% # Type of FU issued
system.cpu0.iq.FU_type_0::SimdAlu                   0      0.00%     83.41% # Type of FU issued
system.cpu0.iq.FU_type_0::SimdCmp                   0      0.00%     83.41% # Type of FU issued
system.cpu0.iq.FU_type_0::SimdCvt                   0      0.00%     83.41% # Type of FU issued
system.cpu0.iq.FU_type_0::SimdMisc                  0      0.00%     83.41% # Type of FU issued
system.cpu0.iq.FU_type_0::SimdMult                  0      0.00%     83.41% # Type of FU issued
system.cpu0.iq.FU_type_0::SimdMultAcc               0      0.00%     83.41% # Type of FU issued
system.cpu0.iq.FU_type_0::SimdShift                 0      0.00%     83.41% # Type of FU issued
system.cpu0.iq.FU_type_0::SimdShiftAcc              0      0.00%     83.41% # Type of FU issued
system.cpu0.iq.FU_type_0::SimdSqrt                  0      0.00%     83.41% # Type of FU issued
system.cpu0.iq.FU_type_0::SimdFloatAdd              0      0.00%     83.41% # Type of FU issued
system.cpu0.iq.FU_type_0::SimdFloatAlu              0      0.00%     83.41% # Type of FU issued
system.cpu0.iq.FU_type_0::SimdFloatCmp              0      0.00%     83.41% # Type of FU issued
system.cpu0.iq.FU_type_0::SimdFloatCvt              0      0.00%     83.41% # Type of FU issued
system.cpu0.iq.FU_type_0::SimdFloatDiv              0      0.00%     83.41% # Type of FU issued
system.cpu0.iq.FU_type_0::SimdFloatMisc             0      0.00%     83.41% # Type of FU issued
system.cpu0.iq.FU_type_0::SimdFloatMult             0      0.00%     83.41% # Type of FU issued
system.cpu0.iq.FU_type_0::SimdFloatMultAcc            0      0.00%     83.41% # Type of FU issued
system.cpu0.iq.FU_type_0::SimdFloatSqrt             0      0.00%     83.41% # Type of FU issued
system.cpu0.iq.FU_type_0::MemRead              781575     15.76%     99.17% # Type of FU issued
system.cpu0.iq.FU_type_0::MemWrite              38669      0.78%     99.95% # Type of FU issued
system.cpu0.iq.FU_type_0::FloatMemRead           2469      0.05%    100.00% # Type of FU issued
system.cpu0.iq.FU_type_0::FloatMemWrite           104      0.00%    100.00% # Type of FU issued
system.cpu0.iq.FU_type_0::IprAccess                 0      0.00%    100.00% # Type of FU issued
system.cpu0.iq.FU_type_0::InstPrefetch              0      0.00%    100.00% # Type of FU issued
system.cpu0.iq.FU_type_0::total               4960530                       # Type of FU issued
system.cpu0.iq.rate                          0.162456                       # Inst issue rate
system.cpu0.iq.fu_busy_cnt                      12456                       # FU busy when requested
system.cpu0.iq.fu_busy_rate                  0.002511                       # FU busy rate (busy events/executed inst)
system.cpu0.iq.int_inst_queue_reads          40407975                       # Number of integer instruction queue reads
system.cpu0.iq.int_inst_queue_writes         11278010                       # Number of integer instruction queue writes
system.cpu0.iq.int_inst_queue_wakeup_accesses      4780120                       # Number of integer instruction queue wakeup accesses
system.cpu0.iq.fp_inst_queue_reads              28945                       # Number of floating instruction queue reads
system.cpu0.iq.fp_inst_queue_writes             28252                       # Number of floating instruction queue writes
system.cpu0.iq.fp_inst_queue_wakeup_accesses        12403                       # Number of floating instruction queue wakeup accesses
system.cpu0.iq.vec_inst_queue_reads                 0                       # Number of vector instruction queue reads
system.cpu0.iq.vec_inst_queue_writes                0                       # Number of vector instruction queue writes
system.cpu0.iq.vec_inst_queue_wakeup_accesses            0                       # Number of vector instruction queue wakeup accesses
system.cpu0.iq.int_alu_accesses               4945904                       # Number of integer alu accesses
system.cpu0.iq.fp_alu_accesses                  14930                       # Number of floating point alu accesses
system.cpu0.iq.vec_alu_accesses                     0                       # Number of vector alu accesses
system.cpu0.iew.lsq.thread0.forwLoads            3690                       # Number of loads that had data forwarded from stores
system.cpu0.iew.lsq.thread0.invAddrLoads            0                       # Number of loads ignored due to an invalid address
system.cpu0.iew.lsq.thread0.squashedLoads       839972                       # Number of loads squashed
system.cpu0.iew.lsq.thread0.ignoredResponses          112                       # Number of memory responses ignored because the instruction is squashed
system.cpu0.iew.lsq.thread0.memOrderViolation            7                       # Number of memory ordering violations
system.cpu0.iew.lsq.thread0.squashedStores        29047                       # Number of stores squashed
system.cpu0.iew.lsq.thread0.invAddrSwpfs            0                       # Number of software prefetches ignored due to an invalid address
system.cpu0.iew.lsq.thread0.blockedLoads            0                       # Number of blocked loads due to partial load-store forwarding
system.cpu0.iew.lsq.thread0.rescheduledLoads           12                       # Number of loads that were rescheduled
system.cpu0.iew.lsq.thread0.cacheBlocked         1968                       # Number of times an access to memory failed due to the cache being blocked
system.cpu0.iew.iewIdleCycles                       0                       # Number of cycles IEW is idle
system.cpu0.iew.iewSquashCycles                 60775                       # Number of cycles IEW is squashing
system.cpu0.iew.iewBlockCycles               25635939                       # Number of cycles IEW is blocking
system.cpu0.iew.iewUnblockCycles               269490                       # Number of cycles IEW is unblocking
system.cpu0.iew.iewDispatchedInsts            7011422                       # Number of instructions dispatched to IQ
system.cpu0.iew.iewDispSquashedInsts             3041                       # Number of squashed instructions skipped by dispatch
system.cpu0.iew.iewDispLoadInsts              1362877                       # Number of dispatched load instructions
system.cpu0.iew.iewDispStoreInsts               51400                       # Number of dispatched store instructions
system.cpu0.iew.iewDispNonSpecInsts              1076                       # Number of dispatched non-speculative instructions
system.cpu0.iew.iewIQFullEvents                 16684                       # Number of times the IQ has become full, causing a stall
system.cpu0.iew.iewLSQFullEvents                46954                       # Number of times the LSQ has become full, causing a stall
system.cpu0.iew.memOrderViolationEvents             7                       # Number of memory order violations
system.cpu0.iew.predictedTakenIncorrect         34420                       # Number of branches that were predicted taken incorrectly
system.cpu0.iew.predictedNotTakenIncorrect        31437                       # Number of branches that were predicted not taken incorrectly
system.cpu0.iew.branchMispredicts               65857                       # Number of branch mispredicts detected at execute
system.cpu0.iew.iewExecutedInsts              4886869                       # Number of executed instructions
system.cpu0.iew.iewExecLoadInsts               752597                       # Number of load instructions executed
system.cpu0.iew.iewExecSquashedInsts            73661                       # Number of squashed instructions skipped in execute
system.cpu0.iew.exec_swp                            0                       # number of swp insts executed
system.cpu0.iew.exec_nop                            0                       # number of nop insts executed
system.cpu0.iew.exec_refs                      788881                       # number of memory reference insts executed
system.cpu0.iew.exec_branches                  595920                       # Number of branches executed
system.cpu0.iew.exec_stores                     36284                       # Number of stores executed
system.cpu0.iew.exec_rate                    0.160043                       # Inst execution rate
system.cpu0.iew.wb_sent                       4804719                       # cumulative count of insts sent to commit
system.cpu0.iew.wb_count                      4792523                       # cumulative count of insts written-back
system.cpu0.iew.wb_producers                  3540008                       # num instructions producing a value
system.cpu0.iew.wb_consumers                  5582014                       # num instructions consuming a value
system.cpu0.iew.wb_rate                      0.156953                       # insts written-back per cycle
system.cpu0.iew.wb_fanout                    0.634181                       # average fanout of values written-back
system.cpu0.commit.commitSquashedInsts        4295278                       # The number of squashed insts skipped by commit
system.cpu0.commit.commitNonSpecStalls              1                       # The number of times commit has been forced to stall to communicate backwards
system.cpu0.commit.branchMispredicts            60772                       # The number of times a branch was mispredicted
system.cpu0.commit.committed_per_cycle::samples     29905368                       # Number of insts commited each cycle
system.cpu0.commit.committed_per_cycle::mean     0.090837                       # Number of insts commited each cycle
system.cpu0.commit.committed_per_cycle::stdev     0.550373                       # Number of insts commited each cycle
system.cpu0.commit.committed_per_cycle::underflows            0      0.00%      0.00% # Number of insts commited each cycle
system.cpu0.commit.committed_per_cycle::0     28711267     96.01%     96.01% # Number of insts commited each cycle
system.cpu0.commit.committed_per_cycle::1       556893      1.86%     97.87% # Number of insts commited each cycle
system.cpu0.commit.committed_per_cycle::2       129635      0.43%     98.30% # Number of insts commited each cycle
system.cpu0.commit.committed_per_cycle::3       359889      1.20%     99.51% # Number of insts commited each cycle
system.cpu0.commit.committed_per_cycle::4        61469      0.21%     99.71% # Number of insts commited each cycle
system.cpu0.commit.committed_per_cycle::5        33997      0.11%     99.83% # Number of insts commited each cycle
system.cpu0.commit.committed_per_cycle::6         4650      0.02%     99.84% # Number of insts commited each cycle
system.cpu0.commit.committed_per_cycle::7         3613      0.01%     99.85% # Number of insts commited each cycle
system.cpu0.commit.committed_per_cycle::8        43955      0.15%    100.00% # Number of insts commited each cycle
system.cpu0.commit.committed_per_cycle::overflows            0      0.00%    100.00% # Number of insts commited each cycle
system.cpu0.commit.committed_per_cycle::min_value            0                       # Number of insts commited each cycle
system.cpu0.commit.committed_per_cycle::max_value            8                       # Number of insts commited each cycle
system.cpu0.commit.committed_per_cycle::total     29905368                       # Number of insts commited each cycle
system.cpu0.commit.committedInsts             1359788                       # Number of instructions committed
system.cpu0.commit.committedOps               2716522                       # Number of ops (including micro ops) committed
system.cpu0.commit.swp_count                        0                       # Number of s/w prefetches committed
system.cpu0.commit.refs                        545251                       # Number of memory references committed
system.cpu0.commit.loads                       522898                       # Number of loads committed
system.cpu0.commit.membars                          0                       # Number of memory barriers committed
system.cpu0.commit.branches                    496869                       # Number of branches committed
system.cpu0.commit.vec_insts                        0                       # Number of committed Vector instructions.
system.cpu0.commit.fp_insts                      8974                       # Number of committed floating point instructions.
system.cpu0.commit.int_insts                  2707454                       # Number of committed integer instructions.
system.cpu0.commit.function_calls                3954                       # Number of function calls committed.
system.cpu0.commit.op_class_0::No_OpClass         2705      0.10%      0.10% # Class of committed instruction
system.cpu0.commit.op_class_0::IntAlu         2154186     79.30%     79.40% # Class of committed instruction
system.cpu0.commit.op_class_0::IntMult            158      0.01%     79.40% # Class of committed instruction
system.cpu0.commit.op_class_0::IntDiv            6554      0.24%     79.65% # Class of committed instruction
system.cpu0.commit.op_class_0::FloatAdd          7668      0.28%     79.93% # Class of committed instruction
system.cpu0.commit.op_class_0::FloatCmp             0      0.00%     79.93% # Class of committed instruction
system.cpu0.commit.op_class_0::FloatCvt             0      0.00%     79.93% # Class of committed instruction
system.cpu0.commit.op_class_0::FloatMult            0      0.00%     79.93% # Class of committed instruction
system.cpu0.commit.op_class_0::FloatMultAcc            0      0.00%     79.93% # Class of committed instruction
system.cpu0.commit.op_class_0::FloatDiv             0      0.00%     79.93% # Class of committed instruction
system.cpu0.commit.op_class_0::FloatMisc            0      0.00%     79.93% # Class of committed instruction
system.cpu0.commit.op_class_0::FloatSqrt            0      0.00%     79.93% # Class of committed instruction
system.cpu0.commit.op_class_0::SimdAdd              0      0.00%     79.93% # Class of committed instruction
system.cpu0.commit.op_class_0::SimdAddAcc            0      0.00%     79.93% # Class of committed instruction
system.cpu0.commit.op_class_0::SimdAlu              0      0.00%     79.93% # Class of committed instruction
system.cpu0.commit.op_class_0::SimdCmp              0      0.00%     79.93% # Class of committed instruction
system.cpu0.commit.op_class_0::SimdCvt              0      0.00%     79.93% # Class of committed instruction
system.cpu0.commit.op_class_0::SimdMisc             0      0.00%     79.93% # Class of committed instruction
system.cpu0.commit.op_class_0::SimdMult             0      0.00%     79.93% # Class of committed instruction
system.cpu0.commit.op_class_0::SimdMultAcc            0      0.00%     79.93% # Class of committed instruction
system.cpu0.commit.op_class_0::SimdShift            0      0.00%     79.93% # Class of committed instruction
system.cpu0.commit.op_class_0::SimdShiftAcc            0      0.00%     79.93% # Class of committed instruction
system.cpu0.commit.op_class_0::SimdSqrt             0      0.00%     79.93% # Class of committed instruction
system.cpu0.commit.op_class_0::SimdFloatAdd            0      0.00%     79.93% # Class of committed instruction
system.cpu0.commit.op_class_0::SimdFloatAlu            0      0.00%     79.93% # Class of committed instruction
system.cpu0.commit.op_class_0::SimdFloatCmp            0      0.00%     79.93% # Class of committed instruction
system.cpu0.commit.op_class_0::SimdFloatCvt            0      0.00%     79.93% # Class of committed instruction
system.cpu0.commit.op_class_0::SimdFloatDiv            0      0.00%     79.93% # Class of committed instruction
system.cpu0.commit.op_class_0::SimdFloatMisc            0      0.00%     79.93% # Class of committed instruction
system.cpu0.commit.op_class_0::SimdFloatMult            0      0.00%     79.93% # Class of committed instruction
system.cpu0.commit.op_class_0::SimdFloatMultAcc            0      0.00%     79.93% # Class of committed instruction
system.cpu0.commit.op_class_0::SimdFloatSqrt            0      0.00%     79.93% # Class of committed instruction
system.cpu0.commit.op_class_0::MemRead         521592     19.20%     99.13% # Class of committed instruction
system.cpu0.commit.op_class_0::MemWrite         22353      0.82%     99.95% # Class of committed instruction
system.cpu0.commit.op_class_0::FloatMemRead         1306      0.05%    100.00% # Class of committed instruction
system.cpu0.commit.op_class_0::FloatMemWrite            0      0.00%    100.00% # Class of committed instruction
system.cpu0.commit.op_class_0::IprAccess            0      0.00%    100.00% # Class of committed instruction
system.cpu0.commit.op_class_0::InstPrefetch            0      0.00%    100.00% # Class of committed instruction
system.cpu0.commit.op_class_0::total          2716522                       # Class of committed instruction
system.cpu0.commit.bw_lim_events                43955                       # number cycles where commit BW limit reached
system.cpu0.rob.rob_reads                    36873213                       # The number of ROB reads
system.cpu0.rob.rob_writes                   14618169                       # The number of ROB writes
system.cpu0.timesIdled                            263                       # Number of times that the entire CPU went into an idle state and unscheduled itself
system.cpu0.idleCycles                          35970                       # Total number of cycles that the CPU has spent unscheduled due to idling
system.cpu0.committedInsts                    1359788                       # Number of Instructions Simulated
system.cpu0.committedOps                      2716522                       # Number of Ops (including micro ops) Simulated
system.cpu0.cpi                             22.455477                       # CPI: Cycles Per Instruction
system.cpu0.cpi_total                       22.455477                       # CPI: Total CPI of All Threads
system.cpu0.ipc                              0.044533                       # IPC: Instructions Per Cycle
system.cpu0.ipc_total                        0.044533                       # IPC: Total IPC of All Threads
system.cpu0.int_regfile_reads                 4729823                       # number of integer regfile reads
system.cpu0.int_regfile_writes                4165212                       # number of integer regfile writes
system.cpu0.fp_regfile_reads                    22024                       # number of floating regfile reads
system.cpu0.fp_regfile_writes                   10930                       # number of floating regfile writes
system.cpu0.cc_regfile_reads                  3192532                       # number of cc regfile reads
system.cpu0.cc_regfile_writes                 1314830                       # number of cc regfile writes
system.cpu0.misc_regfile_reads                2627926                       # number of misc regfile reads
system.cpu0.dcache.tags.pwrStateResidencyTicks::UNDEFINED  15267344125                       # Cumulative time (in ticks) in various power states
system.cpu0.dcache.tags.replacements           278201                       # number of replacements
system.cpu0.dcache.tags.tagsinuse                1024                       # Cycle average of tags in use
system.cpu0.dcache.tags.total_refs             280084                       # Total number of references to valid blocks.
system.cpu0.dcache.tags.sampled_refs           278201                       # Sample count of references to valid blocks.
system.cpu0.dcache.tags.avg_refs             1.006768                       # Average number of references to valid blocks.
system.cpu0.dcache.tags.warmup_cycle                0                       # Cycle when the warmup percentage was hit.
system.cpu0.dcache.tags.occ_blocks::cpu0.data         1024                       # Average occupied blocks per requestor
system.cpu0.dcache.tags.occ_percent::cpu0.data            1                       # Average percentage of cache occupancy
system.cpu0.dcache.tags.occ_percent::total            1                       # Average percentage of cache occupancy
system.cpu0.dcache.tags.occ_task_id_blocks::1024         1024                       # Occupied blocks per task id
system.cpu0.dcache.tags.age_task_id_blocks_1024::0          141                       # Occupied blocks per task id
system.cpu0.dcache.tags.age_task_id_blocks_1024::1          811                       # Occupied blocks per task id
system.cpu0.dcache.tags.age_task_id_blocks_1024::2           72                       # Occupied blocks per task id
system.cpu0.dcache.tags.occ_task_id_percent::1024            1                       # Percentage of cache occupancy per task id
system.cpu0.dcache.tags.tag_accesses          3346353                       # Number of tag accesses
system.cpu0.dcache.tags.data_accesses         3346353                       # Number of data accesses
system.cpu0.dcache.pwrStateResidencyTicks::UNDEFINED  15267344125                       # Cumulative time (in ticks) in various power states
system.cpu0.dcache.ReadReq_hits::cpu0.data       258900                       # number of ReadReq hits
system.cpu0.dcache.ReadReq_hits::total         258900                       # number of ReadReq hits
system.cpu0.dcache.WriteReq_hits::cpu0.data        21414                       # number of WriteReq hits
system.cpu0.dcache.WriteReq_hits::total         21414                       # number of WriteReq hits
system.cpu0.dcache.demand_hits::cpu0.data       280314                       # number of demand (read+write) hits
system.cpu0.dcache.demand_hits::total          280314                       # number of demand (read+write) hits
system.cpu0.dcache.overall_hits::cpu0.data       280314                       # number of overall hits
system.cpu0.dcache.overall_hits::total         280314                       # number of overall hits
system.cpu0.dcache.ReadReq_misses::cpu0.data       485785                       # number of ReadReq misses
system.cpu0.dcache.ReadReq_misses::total       485785                       # number of ReadReq misses
system.cpu0.dcache.WriteReq_misses::cpu0.data          939                       # number of WriteReq misses
system.cpu0.dcache.WriteReq_misses::total          939                       # number of WriteReq misses
system.cpu0.dcache.demand_misses::cpu0.data       486724                       # number of demand (read+write) misses
system.cpu0.dcache.demand_misses::total        486724                       # number of demand (read+write) misses
system.cpu0.dcache.overall_misses::cpu0.data       486724                       # number of overall misses
system.cpu0.dcache.overall_misses::total       486724                       # number of overall misses
system.cpu0.dcache.ReadReq_miss_latency::cpu0.data  34455953000                       # number of ReadReq miss cycles
system.cpu0.dcache.ReadReq_miss_latency::total  34455953000                       # number of ReadReq miss cycles
system.cpu0.dcache.WriteReq_miss_latency::cpu0.data     33178998                       # number of WriteReq miss cycles
system.cpu0.dcache.WriteReq_miss_latency::total     33178998                       # number of WriteReq miss cycles
system.cpu0.dcache.demand_miss_latency::cpu0.data  34489131998                       # number of demand (read+write) miss cycles
system.cpu0.dcache.demand_miss_latency::total  34489131998                       # number of demand (read+write) miss cycles
system.cpu0.dcache.overall_miss_latency::cpu0.data  34489131998                       # number of overall miss cycles
system.cpu0.dcache.overall_miss_latency::total  34489131998                       # number of overall miss cycles
system.cpu0.dcache.ReadReq_accesses::cpu0.data       744685                       # number of ReadReq accesses(hits+misses)
system.cpu0.dcache.ReadReq_accesses::total       744685                       # number of ReadReq accesses(hits+misses)
system.cpu0.dcache.WriteReq_accesses::cpu0.data        22353                       # number of WriteReq accesses(hits+misses)
system.cpu0.dcache.WriteReq_accesses::total        22353                       # number of WriteReq accesses(hits+misses)
system.cpu0.dcache.demand_accesses::cpu0.data       767038                       # number of demand (read+write) accesses
system.cpu0.dcache.demand_accesses::total       767038                       # number of demand (read+write) accesses
system.cpu0.dcache.overall_accesses::cpu0.data       767038                       # number of overall (read+write) accesses
system.cpu0.dcache.overall_accesses::total       767038                       # number of overall (read+write) accesses
system.cpu0.dcache.ReadReq_miss_rate::cpu0.data     0.652336                       # miss rate for ReadReq accesses
system.cpu0.dcache.ReadReq_miss_rate::total     0.652336                       # miss rate for ReadReq accesses
system.cpu0.dcache.WriteReq_miss_rate::cpu0.data     0.042008                       # miss rate for WriteReq accesses
system.cpu0.dcache.WriteReq_miss_rate::total     0.042008                       # miss rate for WriteReq accesses
[...]
system.l2.ReadExReq_miss_rate::cpu0.data     0.235798                       # miss rate for ReadExReq accesses
system.l2.ReadExReq_miss_rate::total         0.235798                       # miss rate for ReadExReq accesses
system.l2.ReadCleanReq_miss_rate::cpu0.inst            1                       # miss rate for ReadCleanReq accesses
system.l2.ReadCleanReq_miss_rate::total             1                       # miss rate for ReadCleanReq accesses
system.l2.ReadSharedReq_miss_rate::cpu0.data     0.676282                       # miss rate for ReadSharedReq accesses
system.l2.ReadSharedReq_miss_rate::total     0.676282                       # miss rate for ReadSharedReq accesses
system.l2.demand_miss_rate::cpu0.inst               1                       # miss rate for demand accesses
system.l2.demand_miss_rate::cpu0.data        0.674805                       # miss rate for demand accesses
system.l2.demand_miss_rate::total            0.674806                       # miss rate for demand accesses
system.l2.overall_miss_rate::cpu0.inst              1                       # miss rate for overall accesses
system.l2.overall_miss_rate::cpu0.data       0.674805                       # miss rate for overall accesses
system.l2.overall_miss_rate::total           0.674806                       # miss rate for overall accesses
system.l2.ReadExReq_avg_miss_latency::cpu0.data 103127.272727                       # average ReadExReq miss latency
system.l2.ReadExReq_avg_miss_latency::total 103127.272727                       # average ReadExReq miss latency
system.l2.ReadCleanReq_avg_miss_latency::cpu0.inst       100500                       # average ReadCleanReq miss latency
system.l2.ReadCleanReq_avg_miss_latency::total       100500                       # average ReadCleanReq miss latency
system.l2.ReadSharedReq_avg_miss_latency::cpu0.data 95334.138615                       # average ReadSharedReq miss latency
system.l2.ReadSharedReq_avg_miss_latency::total 95334.138615                       # average ReadSharedReq miss latency
system.l2.demand_avg_miss_latency::cpu0.inst       100500                       # average overall miss latency
system.l2.demand_avg_miss_latency::cpu0.data 95343.271259                       # average overall miss latency
system.l2.demand_avg_miss_latency::total 95343.298727                       # average overall miss latency
system.l2.overall_avg_miss_latency::cpu0.inst       100500                       # average overall miss latency
system.l2.overall_avg_miss_latency::cpu0.data 95343.271259                       # average overall miss latency
system.l2.overall_avg_miss_latency::total 95343.298727                       # average overall miss latency
system.l2.blocked_cycles::no_mshrs                  0                       # number of cycles access was blocked
system.l2.blocked_cycles::no_targets                0                       # number of cycles access was blocked
system.l2.blocked::no_mshrs                         0                       # number of cycles access was blocked
system.l2.blocked::no_targets                       0                       # number of cycles access was blocked
system.l2.avg_blocked_cycles::no_mshrs            nan                       # average number of cycles each access was blocked
system.l2.avg_blocked_cycles::no_targets          nan                       # average number of cycles each access was blocked
system.l2.writebacks::writebacks                  318                       # number of writebacks
system.l2.writebacks::total                       318                       # number of writebacks
system.l2.ReadExReq_mshr_misses::cpu0.data          220                       # number of ReadExReq MSHR misses
system.l2.ReadExReq_mshr_misses::total            220                       # number of ReadExReq MSHR misses
system.l2.ReadCleanReq_mshr_misses::cpu0.inst            1                       # number of ReadCleanReq MSHR misses
system.l2.ReadCleanReq_mshr_misses::total            1                       # number of ReadCleanReq MSHR misses
system.l2.ReadSharedReq_mshr_misses::cpu0.data       187512                       # number of ReadSharedReq MSHR misses
system.l2.ReadSharedReq_mshr_misses::total       187512                       # number of ReadSharedReq MSHR misses
system.l2.demand_mshr_misses::cpu0.inst             1                       # number of demand (read+write) MSHR misses
system.l2.demand_mshr_misses::cpu0.data        187732                       # number of demand (read+write) MSHR misses
system.l2.demand_mshr_misses::total            187733                       # number of demand (read+write) MSHR misses
system.l2.overall_mshr_misses::cpu0.inst            1                       # number of overall MSHR misses
system.l2.overall_mshr_misses::cpu0.data       187732                       # number of overall MSHR misses
system.l2.overall_mshr_misses::total           187733                       # number of overall MSHR misses
system.l2.ReadExReq_mshr_miss_latency::cpu0.data     20488000                       # number of ReadExReq MSHR miss cycles
system.l2.ReadExReq_mshr_miss_latency::total     20488000                       # number of ReadExReq MSHR miss cycles
system.l2.ReadCleanReq_mshr_miss_latency::cpu0.inst        90500                       # number of ReadCleanReq MSHR miss cycles
system.l2.ReadCleanReq_mshr_miss_latency::total        90500                       # number of ReadCleanReq MSHR miss cycles
system.l2.ReadSharedReq_mshr_miss_latency::cpu0.data  16001185000                       # number of ReadSharedReq MSHR miss cycles
system.l2.ReadSharedReq_mshr_miss_latency::total  16001185000                       # number of ReadSharedReq MSHR miss cycles
system.l2.demand_mshr_miss_latency::cpu0.inst        90500                       # number of demand (read+write) MSHR miss cycles
system.l2.demand_mshr_miss_latency::cpu0.data  16021673000                       # number of demand (read+write) MSHR miss cycles
system.l2.demand_mshr_miss_latency::total  16021763500                       # number of demand (read+write) MSHR miss cycles
system.l2.overall_mshr_miss_latency::cpu0.inst        90500                       # number of overall MSHR miss cycles
system.l2.overall_mshr_miss_latency::cpu0.data  16021673000                       # number of overall MSHR miss cycles
system.l2.overall_mshr_miss_latency::total  16021763500                       # number of overall MSHR miss cycles
system.l2.ReadExReq_mshr_miss_rate::cpu0.data     0.235798                       # mshr miss rate for ReadExReq accesses
system.l2.ReadExReq_mshr_miss_rate::total     0.235798                       # mshr miss rate for ReadExReq accesses
system.l2.ReadCleanReq_mshr_miss_rate::cpu0.inst            1                       # mshr miss rate for ReadCleanReq accesses
system.l2.ReadCleanReq_mshr_miss_rate::total            1                       # mshr miss rate for ReadCleanReq accesses
system.l2.ReadSharedReq_mshr_miss_rate::cpu0.data     0.676282                       # mshr miss rate for ReadSharedReq accesses
system.l2.ReadSharedReq_mshr_miss_rate::total     0.676282                       # mshr miss rate for ReadSharedReq accesses
system.l2.demand_mshr_miss_rate::cpu0.inst            1                       # mshr miss rate for demand accesses
system.l2.demand_mshr_miss_rate::cpu0.data     0.674805                       # mshr miss rate for demand accesses
system.l2.demand_mshr_miss_rate::total       0.674806                       # mshr miss rate for demand accesses
system.l2.overall_mshr_miss_rate::cpu0.inst            1                       # mshr miss rate for overall accesses
system.l2.overall_mshr_miss_rate::cpu0.data     0.674805                       # mshr miss rate for overall accesses
system.l2.overall_mshr_miss_rate::total      0.674806                       # mshr miss rate for overall accesses
system.l2.ReadExReq_avg_mshr_miss_latency::cpu0.data 93127.272727                       # average ReadExReq mshr miss latency
system.l2.ReadExReq_avg_mshr_miss_latency::total 93127.272727                       # average ReadExReq mshr miss latency
system.l2.ReadCleanReq_avg_mshr_miss_latency::cpu0.inst        90500                       # average ReadCleanReq mshr miss latency
system.l2.ReadCleanReq_avg_mshr_miss_latency::total        90500                       # average ReadCleanReq mshr miss latency
system.l2.ReadSharedReq_avg_mshr_miss_latency::cpu0.data 85334.191945                       # average ReadSharedReq mshr miss latency
system.l2.ReadSharedReq_avg_mshr_miss_latency::total 85334.191945                       # average ReadSharedReq mshr miss latency
system.l2.demand_avg_mshr_miss_latency::cpu0.inst        90500                       # average overall mshr miss latency
system.l2.demand_avg_mshr_miss_latency::cpu0.data 85343.324526                       # average overall mshr miss latency
system.l2.demand_avg_mshr_miss_latency::total 85343.351995                       # average overall mshr miss latency
system.l2.overall_avg_mshr_miss_latency::cpu0.inst        90500                       # average overall mshr miss latency
system.l2.overall_avg_mshr_miss_latency::cpu0.data 85343.324526                       # average overall mshr miss latency
system.l2.overall_avg_mshr_miss_latency::total 85343.351995                       # average overall mshr miss latency
system.membus.snoop_filter.tot_requests        375462                       # Total number of requests made to the snoop filter.
system.membus.snoop_filter.hit_single_requests       187733                       # Number of requests hitting in the snoop filter with a single holder of the requested data.
system.membus.snoop_filter.hit_multi_requests            0                       # Number of requests hitting in the snoop filter with multiple (>1) holders of the requested data.
system.membus.snoop_filter.tot_snoops               0                       # Total number of snoops made to the snoop filter.
system.membus.snoop_filter.hit_single_snoops            0                       # Number of snoops hitting in the snoop filter with a single holder of the requested data.
system.membus.snoop_filter.hit_multi_snoops            0                       # Number of snoops hitting in the snoop filter with multiple (>1) holders of the requested data.
system.membus.pwrStateResidencyTicks::UNDEFINED  15267344125                       # Cumulative time (in ticks) in various power states
system.membus.trans_dist::ReadResp             187512                       # Transaction distribution
system.membus.trans_dist::WritebackDirty          318                       # Transaction distribution
system.membus.trans_dist::CleanEvict           187413                       # Transaction distribution
system.membus.trans_dist::ReadExReq               220                       # Transaction distribution
system.membus.trans_dist::ReadExResp              220                       # Transaction distribution
system.membus.trans_dist::ReadSharedReq        187511                       # Transaction distribution
system.membus.pkt_count_system.l2.mem_side::system.mem_ctrls.port       563194                       # Packet count per connected master and slave (bytes)
system.membus.pkt_count_system.l2.mem_side::total       563194                       # Packet count per connected master and slave (bytes)
system.membus.pkt_count::total                 563194                       # Packet count per connected master and slave (bytes)
system.membus.pkt_size_system.l2.mem_side::system.mem_ctrls.port     12035200                       # Cumulative packet size per connected master and slave (bytes)
system.membus.pkt_size_system.l2.mem_side::total     12035200                       # Cumulative packet size per connected master and slave (bytes)
system.membus.pkt_size::total                12035200                       # Cumulative packet size per connected master and slave (bytes)
system.membus.snoops                                0                       # Total snoops (count)
system.membus.snoopTraffic                          0                       # Total snoop traffic (bytes)
system.membus.snoop_fanout::samples            187731                       # Request fanout histogram
system.membus.snoop_fanout::mean                    0                       # Request fanout histogram
system.membus.snoop_fanout::stdev                   0                       # Request fanout histogram
system.membus.snoop_fanout::underflows              0      0.00%      0.00% # Request fanout histogram
system.membus.snoop_fanout::0                  187731    100.00%    100.00% # Request fanout histogram
system.membus.snoop_fanout::1                       0      0.00%    100.00% # Request fanout histogram
system.membus.snoop_fanout::overflows               0      0.00%    100.00% # Request fanout histogram
system.membus.snoop_fanout::min_value               0                       # Request fanout histogram
system.membus.snoop_fanout::max_value               0                       # Request fanout histogram
system.membus.snoop_fanout::total              187731                       # Request fanout histogram
system.membus.reqLayer8.occupancy           441640000                       # Layer occupancy (ticks)
system.membus.reqLayer8.utilization               2.9                       # Layer utilization (%)
system.membus.respLayer1.occupancy         1016069000                       # Layer occupancy (ticks)
system.membus.respLayer1.utilization              6.7                       # Layer utilization (%)
system.tol2bus.snoop_filter.tot_requests       556406                       # Total number of requests made to the snoop filter.
system.tol2bus.snoop_filter.hit_single_requests       278203                       # Number of requests hitting in the snoop filter with a single holder of the requested data.
system.tol2bus.snoop_filter.hit_multi_requests          660                       # Number of requests hitting in the snoop filter with multiple (>1) holders of the requested data.
system.tol2bus.snoop_filter.tot_snoops              2                       # Total number of snoops made to the snoop filter.
system.tol2bus.snoop_filter.hit_single_snoops            2                       # Number of snoops hitting in the snoop filter with a single holder of the requested data.
system.tol2bus.snoop_filter.hit_multi_snoops            0                       # Number of snoops hitting in the snoop filter with multiple (>1) holders of the requested data.
system.tol2bus.pwrStateResidencyTicks::UNDEFINED  15267344125                       # Cumulative time (in ticks) in various power states
system.tol2bus.trans_dist::ReadResp            277269                       # Transaction distribution
system.tol2bus.trans_dist::WritebackDirty         2994                       # Transaction distribution
system.tol2bus.trans_dist::WritebackClean            1                       # Transaction distribution
system.tol2bus.trans_dist::CleanEvict          462941                       # Transaction distribution
system.tol2bus.trans_dist::ReadExReq              933                       # Transaction distribution
system.tol2bus.trans_dist::ReadExResp             933                       # Transaction distribution
system.tol2bus.trans_dist::ReadCleanReq             1                       # Transaction distribution
system.tol2bus.trans_dist::ReadSharedReq       277269                       # Transaction distribution
system.tol2bus.pkt_count_system.cpu0.icache.mem_side::system.l2.cpu_side            3                       # Packet count per connected master and slave (bytes)
system.tol2bus.pkt_count_system.cpu0.dcache.mem_side::system.l2.cpu_side       834605                       # Packet count per connected master and slave (bytes)
system.tol2bus.pkt_count::total                834608                       # Packet count per connected master and slave (bytes)
system.tol2bus.pkt_size_system.cpu0.icache.mem_side::system.l2.cpu_side          128                       # Cumulative packet size per connected master and slave (bytes)
system.tol2bus.pkt_size_system.cpu0.dcache.mem_side::system.l2.cpu_side     17976128                       # Cumulative packet size per connected master and slave (bytes)
system.tol2bus.pkt_size::total               17976256                       # Cumulative packet size per connected master and slave (bytes)
system.tol2bus.snoops                          187733                       # Total snoops (count)
system.tol2bus.snoopTraffic                     20352                       # Total snoop traffic (bytes)
system.tol2bus.snoop_fanout::samples           465936                       # Request fanout histogram
system.tol2bus.snoop_fanout::mean            0.001421                       # Request fanout histogram
system.tol2bus.snoop_fanout::stdev           0.037667                       # Request fanout histogram
system.tol2bus.snoop_fanout::underflows             0      0.00%      0.00% # Request fanout histogram
system.tol2bus.snoop_fanout::0                 465274     99.86%     99.86% # Request fanout histogram
system.tol2bus.snoop_fanout::1                    662      0.14%    100.00% # Request fanout histogram
system.tol2bus.snoop_fanout::2                      0      0.00%    100.00% # Request fanout histogram
system.tol2bus.snoop_fanout::3                      0      0.00%    100.00% # Request fanout histogram
system.tol2bus.snoop_fanout::4                      0      0.00%    100.00% # Request fanout histogram
system.tol2bus.snoop_fanout::5                      0      0.00%    100.00% # Request fanout histogram
system.tol2bus.snoop_fanout::6                      0      0.00%    100.00% # Request fanout histogram
system.tol2bus.snoop_fanout::7                      0      0.00%    100.00% # Request fanout histogram
system.tol2bus.snoop_fanout::8                      0      0.00%    100.00% # Request fanout histogram
system.tol2bus.snoop_fanout::9                      0      0.00%    100.00% # Request fanout histogram
system.tol2bus.snoop_fanout::10                     0      0.00%    100.00% # Request fanout histogram
system.tol2bus.snoop_fanout::11                     0      0.00%    100.00% # Request fanout histogram
system.tol2bus.snoop_fanout::12                     0      0.00%    100.00% # Request fanout histogram
system.tol2bus.snoop_fanout::13                     0      0.00%    100.00% # Request fanout histogram
system.tol2bus.snoop_fanout::14                     0      0.00%    100.00% # Request fanout histogram
system.tol2bus.snoop_fanout::15                     0      0.00%    100.00% # Request fanout histogram
system.tol2bus.snoop_fanout::16                     0      0.00%    100.00% # Request fanout histogram
system.tol2bus.snoop_fanout::overflows              0      0.00%    100.00% # Request fanout histogram
system.tol2bus.snoop_fanout::min_value              0                       # Request fanout histogram
system.tol2bus.snoop_fanout::max_value              1                       # Request fanout histogram
system.tol2bus.snoop_fanout::total             465936                       # Request fanout histogram
system.tol2bus.reqLayer0.occupancy          280880000                       # Layer occupancy (ticks)
system.tol2bus.reqLayer0.utilization              1.8                       # Layer utilization (%)
system.tol2bus.respLayer0.occupancy              1500                       # Layer occupancy (ticks)
system.tol2bus.respLayer0.utilization             0.0                       # Layer utilization (%)
system.tol2bus.respLayer1.occupancy         417301500                       # Layer occupancy (ticks)
system.tol2bus.respLayer1.utilization             2.7                       # Layer utilization (%)

---------- End Simulation Statistics   ----------
