
---------- Begin Simulation Statistics ----------
sim_seconds                                  0.015267                       # Number of seconds simulated
sim_ticks                                 15267344125                       # Number of ticks simulated
final_tick                               8030623009750                       # Number of ticks from beginning of simulation (restored from checkpoints and never reset)
sim_freq                                 1000000000000                       # Frequency of simulated ticks
host_inst_rate                               34930012                       # Simulator instruction rate (inst/s)
host_op_rate                                 65266905                       # Simulator op (including micro ops) rate (op/s)
host_tick_rate                               85990890                       # Simulator tick rate (ticks/s)
host_mem_usage                                2332536                       # Number of bytes of host memory used
host_seconds                                   177.55                       # Real time elapsed on the host
sim_insts                                  6201684817                       # Number of instructions simulated
sim_ops                                   11587881075                       # Number of ops (including micro ops) simulated
system.voltage_domain.voltage                       1                       # Voltage in Volts
system.clk_domain.clock                          1000                       # Clock period in ticks
system.mem_ctrls.pwrStateResidencyTicks::UNDEFINED  15267344125                       # Cumulative time (in ticks) in various power states
system.mem_ctrls.bytes_read::cpu0.inst            768                       # Number of bytes read from this memory
system.mem_ctrls.bytes_read::cpu0.data           2112                       # Number of bytes read from this memory
system.mem_ctrls.bytes_read::total               2880                       # Number of bytes read from this memory
system.mem_ctrls.bytes_inst_read::cpu0.inst          768                       # Number of instructions bytes read from this memory
system.mem_ctrls.bytes_inst_read::total           768                       # Number of instructions bytes read from this memory
system.mem_ctrls.bytes_written::writebacks          256                       # Number of bytes written to this memory
system.mem_ctrls.bytes_written::total             256                       # Number of bytes written to this memory
system.mem_ctrls.num_reads::cpu0.inst              12                       # Number of read requests responded to by this memory
system.mem_ctrls.num_reads::cpu0.data              33                       # Number of read requests responded to by this memory
system.mem_ctrls.num_reads::total                  45                       # Number of read requests responded to by this memory
system.mem_ctrls.num_writes::writebacks             4                       # Number of write requests responded to by this memory
system.mem_ctrls.num_writes::total                  4                       # Number of write requests responded to by this memory
system.mem_ctrls.bw_read::cpu0.inst             50303                       # Total read bandwidth from this memory (bytes/s)
system.mem_ctrls.bw_read::cpu0.data            138334                       # Total read bandwidth from this memory (bytes/s)
system.mem_ctrls.bw_read::total                188638                       # Total read bandwidth from this memory (bytes/s)
system.mem_ctrls.bw_inst_read::cpu0.inst        50303                       # Instruction read bandwidth from this memory (bytes/s)
system.mem_ctrls.bw_inst_read::total            50303                       # Instruction read bandwidth from this memory (bytes/s)
system.mem_ctrls.bw_write::writebacks           16768                       # Write bandwidth from this memory (bytes/s)
system.mem_ctrls.bw_write::total                16768                       # Write bandwidth from this memory (bytes/s)
system.mem_ctrls.bw_total::writebacks           16768                       # Total bandwidth to/from this memory (bytes/s)
system.mem_ctrls.bw_total::cpu0.inst            50303                       # Total bandwidth to/from this memory (bytes/s)
system.mem_ctrls.bw_total::cpu0.data           138334                       # Total bandwidth to/from this memory (bytes/s)
system.mem_ctrls.bw_total::total               205406                       # Total bandwidth to/from this memory (bytes/s)
system.mem_ctrls.readReqs                          45                       # Number of read requests accepted
system.mem_ctrls.writeReqs                          4                       # Number of write requests accepted
system.mem_ctrls.readBursts                        45                       # Number of DRAM read bursts, including those serviced by the write queue
system.mem_ctrls.writeBursts                        4                       # Number of DRAM write bursts, including those merged in the write queue
system.mem_ctrls.bytesReadDRAM                   2880                       # Total number of bytes read from DRAM
system.mem_ctrls.bytesReadWrQ                       0                       # Total number of bytes read from write queue
system.mem_ctrls.bytesWritten                    1152                       # Total number of bytes written to DRAM
system.mem_ctrls.bytesReadSys                    2880                       # Total read bytes from the system interface side
system.mem_ctrls.bytesWrittenSys                  256                       # Total written bytes from the system interface side
system.mem_ctrls.servicedByWrQ                      0                       # Number of DRAM read bursts serviced by the write queue
system.mem_ctrls.mergedWrBursts                     0                       # Number of DRAM write bursts merged with an existing one
system.mem_ctrls.neitherReadNorWriteReqs            0                       # Number of requests that are neither read nor write
system.mem_ctrls.perBankRdBursts::0                 0                       # Per bank write bursts
system.mem_ctrls.perBankRdBursts::1                 0                       # Per bank write bursts
system.mem_ctrls.perBankRdBursts::2                 3                       # Per bank write bursts
system.mem_ctrls.perBankRdBursts::3                 2                       # Per bank write bursts
system.mem_ctrls.perBankRdBursts::4                 0                       # Per bank write bursts
system.mem_ctrls.perBankRdBursts::5                 0                       # Per bank write bursts
system.mem_ctrls.perBankRdBursts::6                12                       # Per bank write bursts
system.mem_ctrls.perBankRdBursts::7                 9                       # Per bank write bursts
system.mem_ctrls.perBankRdBursts::8                 2                       # Per bank write bursts
system.mem_ctrls.perBankRdBursts::9                 5                       # Per bank write bursts
system.mem_ctrls.perBankRdBursts::10                3                       # Per bank write bursts
system.mem_ctrls.perBankRdBursts::11                0                       # Per bank write bursts
system.mem_ctrls.perBankRdBursts::12                2                       # Per bank write bursts
system.mem_ctrls.perBankRdBursts::13                0                       # Per bank write bursts
system.mem_ctrls.perBankRdBursts::14                2                       # Per bank write bursts
system.mem_ctrls.perBankRdBursts::15                5                       # Per bank write bursts
system.mem_ctrls.perBankWrBursts::0                 0                       # Per bank write bursts
system.mem_ctrls.perBankWrBursts::1                 0                       # Per bank write bursts
system.mem_ctrls.perBankWrBursts::2                 0                       # Per bank write bursts
system.mem_ctrls.perBankWrBursts::3                 1                       # Per bank write bursts
system.mem_ctrls.perBankWrBursts::4                 0                       # Per bank write bursts
system.mem_ctrls.perBankWrBursts::5                 0                       # Per bank write bursts
system.mem_ctrls.perBankWrBursts::6                 3                       # Per bank write bursts
system.mem_ctrls.perBankWrBursts::7                 3                       # Per bank write bursts
system.mem_ctrls.perBankWrBursts::8                 3                       # Per bank write bursts
system.mem_ctrls.perBankWrBursts::9                 0                       # Per bank write bursts
system.mem_ctrls.perBankWrBursts::10                1                       # Per bank write bursts
system.mem_ctrls.perBankWrBursts::11                0                       # Per bank write bursts
system.mem_ctrls.perBankWrBursts::12                4                       # Per bank write bursts
system.mem_ctrls.perBankWrBursts::13                3                       # Per bank write bursts
system.mem_ctrls.perBankWrBursts::14                0                       # Per bank write bursts
system.mem_ctrls.perBankWrBursts::15                0                       # Per bank write bursts
system.mem_ctrls.numRdRetry                         0                       # Number of times read queue was full causing retry
system.mem_ctrls.numWrRetry                         0                       # Number of times write queue was full causing retry
system.mem_ctrls.totGap                   15824442000                       # Total gap between requests
system.mem_ctrls.readPktSize::0                     0                       # Read request sizes (log2)
system.mem_ctrls.readPktSize::1                     0                       # Read request sizes (log2)
system.mem_ctrls.readPktSize::2                     0                       # Read request sizes (log2)
system.mem_ctrls.readPktSize::3                     0                       # Read request sizes (log2)
system.mem_ctrls.readPktSize::4                     0                       # Read request sizes (log2)
system.mem_ctrls.readPktSize::5                     0                       # Read request sizes (log2)
system.mem_ctrls.readPktSize::6                    45                       # Read request sizes (log2)
system.mem_ctrls.writePktSize::0                    0                       # Write request sizes (log2)
system.mem_ctrls.writePktSize::1                    0                       # Write request sizes (log2)
system.mem_ctrls.writePktSize::2                    0                       # Write request sizes (log2)
system.mem_ctrls.writePktSize::3                    0                       # Write request sizes (log2)
system.mem_ctrls.writePktSize::4                    0                       # Write request sizes (log2)
system.mem_ctrls.writePktSize::5                    0                       # Write request sizes (log2)
system.mem_ctrls.writePktSize::6                    4                       # Write request sizes (log2)
system.mem_ctrls.rdQLenPdf::0                      34                       # What read queue length does an incoming req see
system.mem_ctrls.rdQLenPdf::1                       9                       # What read queue length does an incoming req see
system.mem_ctrls.rdQLenPdf::2                       1                       # What read queue length does an incoming req see
system.mem_ctrls.rdQLenPdf::3                       1                       # What read queue length does an incoming req see
system.mem_ctrls.rdQLenPdf::4                       0                       # What read queue length does an incoming req see
system.mem_ctrls.rdQLenPdf::5                       0                       # What read queue length does an incoming req see
system.mem_ctrls.rdQLenPdf::6                       0                       # What read queue length does an incoming req see
system.mem_ctrls.rdQLenPdf::7                       0                       # What read queue length does an incoming req see
system.mem_ctrls.rdQLenPdf::8                       0                       # What read queue length does an incoming req see
system.mem_ctrls.rdQLenPdf::9                       0                       # What read queue length does an incoming req see
system.mem_ctrls.rdQLenPdf::10                      0                       # What read queue length does an incoming req see
system.mem_ctrls.rdQLenPdf::11                      0                       # What read queue length does an incoming req see
system.mem_ctrls.rdQLenPdf::12                      0                       # What read queue length does an incoming req see
system.mem_ctrls.rdQLenPdf::13                      0                       # What read queue length does an incoming req see
system.mem_ctrls.rdQLenPdf::14                      0                       # What read queue length does an incoming req see
system.mem_ctrls.rdQLenPdf::15                      0                       # What read queue length does an incoming req see
system.mem_ctrls.rdQLenPdf::16                      0                       # What read queue length does an incoming req see
system.mem_ctrls.rdQLenPdf::17                      0                       # What read queue length does an incoming req see
system.mem_ctrls.rdQLenPdf::18                      0                       # What read queue length does an incoming req see
system.mem_ctrls.rdQLenPdf::19                      0                       # What read queue length does an incoming req see
system.mem_ctrls.rdQLenPdf::20                      0                       # What read queue length does an incoming req see
system.mem_ctrls.rdQLenPdf::21                      0                       # What read queue length does an incoming req see
system.mem_ctrls.rdQLenPdf::22                      0                       # What read queue length does an incoming req see
system.mem_ctrls.rdQLenPdf::23                      0                       # What read queue length does an incoming req see
system.mem_ctrls.rdQLenPdf::24                      0                       # What read queue length does an incoming req see
system.mem_ctrls.rdQLenPdf::25                      0                       # What read queue length does an incoming req see
system.mem_ctrls.rdQLenPdf::26                      0                       # What read queue length does an incoming req see
system.mem_ctrls.rdQLenPdf::27                      0                       # What read queue length does an incoming req see
system.mem_ctrls.rdQLenPdf::28                      0                       # What read queue length does an incoming req see
system.mem_ctrls.rdQLenPdf::29                      0                       # What read queue length does an incoming req see
system.mem_ctrls.rdQLenPdf::30                      0                       # What read queue length does an incoming req see
system.mem_ctrls.rdQLenPdf::31                      0                       # What read queue length does an incoming req see
system.mem_ctrls.wrQLenPdf::0                       0                       # What write queue length does an incoming req see
system.mem_ctrls.wrQLenPdf::1                       0                       # What write queue length does an incoming req see
system.mem_ctrls.wrQLenPdf::2                       0                       # What write queue length does an incoming req see
system.mem_ctrls.wrQLenPdf::3                       0                       # What write queue length does an incoming req see
system.mem_ctrls.wrQLenPdf::4                       0                       # What write queue length does an incoming req see
system.mem_ctrls.wrQLenPdf::5                       0                       # What write queue length does an incoming req see
system.mem_ctrls.wrQLenPdf::6                       0                       # What write queue length does an incoming req see
system.mem_ctrls.wrQLenPdf::7                       0                       # What write queue length does an incoming req see
system.mem_ctrls.wrQLenPdf::8                       0                       # What write queue length does an incoming req see
system.mem_ctrls.wrQLenPdf::9                       0                       # What write queue length does an incoming req see
system.mem_ctrls.wrQLenPdf::10                      0                       # What write queue length does an incoming req see
system.mem_ctrls.wrQLenPdf::11                      0                       # What write queue length does an incoming req see
system.mem_ctrls.wrQLenPdf::12                      0                       # What write queue length does an incoming req see
system.mem_ctrls.wrQLenPdf::13                      0                       # What write queue length does an incoming req see
system.mem_ctrls.wrQLenPdf::14                      0                       # What write queue length does an incoming req see
system.mem_ctrls.wrQLenPdf::15                      1                       # What write queue length does an incoming req see
system.mem_ctrls.wrQLenPdf::16                      0                       # What write queue length does an incoming req see
system.mem_ctrls.wrQLenPdf::17                      0                       # What write queue length does an incoming req see
system.mem_ctrls.wrQLenPdf::18                      0                       # What write queue length does an incoming req see
system.mem_ctrls.wrQLenPdf::19                      0                       # What write queue length does an incoming req see
system.mem_ctrls.wrQLenPdf::20                      0                       # What write queue length does an incoming req see
system.mem_ctrls.wrQLenPdf::21                      0                       # What write queue length does an incoming req see
system.mem_ctrls.wrQLenPdf::22                      0                       # What write queue length does an incoming req see
system.mem_ctrls.wrQLenPdf::23                      0                       # What write queue length does an incoming req see
system.mem_ctrls.wrQLenPdf::24                      0                       # What write queue length does an incoming req see
system.mem_ctrls.wrQLenPdf::25                      0                       # What write queue length does an incoming req see
system.mem_ctrls.wrQLenPdf::26                      0                       # What write queue length does an incoming req see
system.mem_ctrls.wrQLenPdf::27                      0                       # What write queue length does an incoming req see
system.mem_ctrls.wrQLenPdf::28                      0                       # What write queue length does an incoming req see
system.mem_ctrls.wrQLenPdf::29                      0                       # What write queue length does an incoming req see
system.mem_ctrls.wrQLenPdf::30                      1                       # What write queue length does an incoming req see
system.mem_ctrls.wrQLenPdf::31                      1                       # What write queue length does an incoming req see
system.mem_ctrls.wrQLenPdf::32                      1                       # What write queue length does an incoming req see
system.mem_ctrls.wrQLenPdf::33                      0                       # What write queue length does an incoming req see
system.mem_ctrls.wrQLenPdf::34                      0                       # What write queue length does an incoming req see
system.mem_ctrls.wrQLenPdf::35                      0                       # What write queue length does an incoming req see
system.mem_ctrls.wrQLenPdf::36                      0                       # What write queue length does an incoming req see
system.mem_ctrls.wrQLenPdf::37                      0                       # What write queue length does an incoming req see
system.mem_ctrls.wrQLenPdf::38                      0                       # What write queue length does an incoming req see
system.mem_ctrls.wrQLenPdf::39                      0                       # What write queue length does an incoming req see
system.mem_ctrls.wrQLenPdf::40                      0                       # What write queue length does an incoming req see
system.mem_ctrls.wrQLenPdf::41                      0                       # What write queue length does an incoming req see
system.mem_ctrls.wrQLenPdf::42                      0                       # What write queue length does an incoming req see
system.mem_ctrls.wrQLenPdf::43                      0                       # What write queue length does an incoming req see
system.mem_ctrls.wrQLenPdf::44                      0                       # What write queue length does an incoming req see
system.mem_ctrls.wrQLenPdf::45                      0                       # What write queue length does an incoming req see
system.mem_ctrls.wrQLenPdf::46                      0                       # What write queue length does an incoming req see
system.mem_ctrls.wrQLenPdf::47                      0                       # What write queue length does an incoming req see
system.mem_ctrls.wrQLenPdf::48                      0                       # What write queue length does an incoming req see
system.mem_ctrls.wrQLenPdf::49                      0                       # What write queue length does an incoming req see
system.mem_ctrls.wrQLenPdf::50                      0                       # What write queue length does an incoming req see
system.mem_ctrls.wrQLenPdf::51                      0                       # What write queue length does an incoming req see
system.mem_ctrls.wrQLenPdf::52                      0                       # What write queue length does an incoming req see
system.mem_ctrls.wrQLenPdf::53                      0                       # What write queue length does an incoming req see
system.mem_ctrls.wrQLenPdf::54                      0                       # What write queue length does an incoming req see
system.mem_ctrls.wrQLenPdf::55                      0                       # What write queue length does an incoming req see
system.mem_ctrls.wrQLenPdf::56                      0                       # What write queue length does an incoming req see
system.mem_ctrls.wrQLenPdf::57                      0                       # What write queue length does an incoming req see
system.mem_ctrls.wrQLenPdf::58                      0                       # What write queue length does an incoming req see
system.mem_ctrls.wrQLenPdf::59                      0                       # What write queue length does an incoming req see
system.mem_ctrls.wrQLenPdf::60                      0                       # What write queue length does an incoming req see
system.mem_ctrls.wrQLenPdf::61                      0                       # What write queue length does an incoming req see
system.mem_ctrls.wrQLenPdf::62                      0                       # What write queue length does an incoming req see
system.mem_ctrls.wrQLenPdf::63                      0                       # What write queue length does an incoming req see
system.mem_ctrls.bytesPerActivate::samples           43                       # Bytes accessed per row activation
system.mem_ctrls.bytesPerActivate::mean     93.767442                       # Bytes accessed per row activation
system.mem_ctrls.bytesPerActivate::gmean    82.380296                       # Bytes accessed per row activation
system.mem_ctrls.bytesPerActivate::stdev    59.823883                       # Bytes accessed per row activation
system.mem_ctrls.bytesPerActivate::64-95           32     74.42%     74.42% # Bytes accessed per row activation
system.mem_ctrls.bytesPerActivate::128-159            5     11.63%     86.05% # Bytes accessed per row activation
system.mem_ctrls.bytesPerActivate::192-223            4      9.30%     95.35% # Bytes accessed per row activation
system.mem_ctrls.bytesPerActivate::256-287            1      2.33%     97.67% # Bytes accessed per row activation
system.mem_ctrls.bytesPerActivate::320-351            1      2.33%    100.00% # Bytes accessed per row activation
system.mem_ctrls.bytesPerActivate::total           43                       # Bytes accessed per row activation
system.mem_ctrls.rdPerTurnAround::samples            1                       # Reads before turning the bus around for writes
system.mem_ctrls.rdPerTurnAround::mean            251                       # Reads before turning the bus around for writes
system.mem_ctrls.rdPerTurnAround::gmean    251.000000                       # Reads before turning the bus around for writes
system.mem_ctrls.rdPerTurnAround::stdev           nan                       # Reads before turning the bus around for writes
system.mem_ctrls.rdPerTurnAround::248-255            1    100.00%    100.00% # Reads before turning the bus around for writes
system.mem_ctrls.rdPerTurnAround::total             1                       # Reads before turning the bus around for writes
system.mem_ctrls.wrPerTurnAround::samples            1                       # Writes before turning the bus around for reads
system.mem_ctrls.wrPerTurnAround::mean             18                       # Writes before turning the bus around for reads
system.mem_ctrls.wrPerTurnAround::gmean     18.000000                       # Writes before turning the bus around for reads
system.mem_ctrls.wrPerTurnAround::stdev           nan                       # Writes before turning the bus around for reads
system.mem_ctrls.wrPerTurnAround::18                1    100.00%    100.00% # Writes before turning the bus around for reads
system.mem_ctrls.wrPerTurnAround::total             1                       # Writes before turning the bus around for reads
system.mem_ctrls.totQLat                     15332750                       # Total ticks spent queuing
system.mem_ctrls.totMemAccLat                16176500                       # Total ticks spent from burst creation until serviced by the DRAM
system.mem_ctrls.totBusLat                     225000                       # Total ticks spent in databus transfers
system.mem_ctrls.avgQLat                    340727.78                       # Average queueing delay per DRAM burst
system.mem_ctrls.avgBusLat                    5000.00                       # Average bus latency per DRAM burst
system.mem_ctrls.avgMemAccLat               359477.78                       # Average memory access latency per DRAM burst
system.mem_ctrls.avgRdBW                         0.19                       # Average DRAM read bandwidth in MiByte/s
system.mem_ctrls.avgWrBW                         0.08                       # Average achieved write bandwidth in MiByte/s
system.mem_ctrls.avgRdBWSys                      0.19                       # Average system read bandwidth in MiByte/s
system.mem_ctrls.avgWrBWSys                      0.02                       # Average system write bandwidth in MiByte/s
system.mem_ctrls.peakBW                      12800.00                       # Theoretical peak bandwidth in MiByte/s
system.mem_ctrls.busUtil                         0.00                       # Data bus utilization in percentage
system.mem_ctrls.busUtilRead                     0.00                       # Data bus utilization in percentage for reads
system.mem_ctrls.busUtilWrite                    0.00                       # Data bus utilization in percentage for writes
system.mem_ctrls.avgRdQLen                       1.11                       # Average read queue length when enqueuing
system.mem_ctrls.avgWrQLen                      31.97                       # Average write queue length when enqueuing
system.mem_ctrls.readRowHits                       11                       # Number of row buffer hits during reads
system.mem_ctrls.writeRowHits                       9                       # Number of row buffer hits during writes
system.mem_ctrls.readRowHitRate                 24.44                       # Row buffer hit rate for reads
system.mem_ctrls.writeRowHitRate               225.00                       # Row buffer hit rate for writes
system.mem_ctrls.avgGap                  322947795.92                       # Average gap between requests
system.mem_ctrls.pageHitRate                    40.82                       # Row buffer hit rate, read and write combined
system.mem_ctrls_0.actEnergy                   171360                       # Energy for activate commands per rank (pJ)
system.mem_ctrls_0.preEnergy                    91080                       # Energy for precharge commands per rank (pJ)
system.mem_ctrls_0.readEnergy                  185640                       # Energy for read commands per rank (pJ)
system.mem_ctrls_0.writeEnergy                  36540                       # Energy for write commands per rank (pJ)
system.mem_ctrls_0.refreshEnergy         28888080.000000                       # Energy for refresh commands per rank (pJ)
system.mem_ctrls_0.actBackEnergy              9068700                       # Energy for active background per rank (pJ)
system.mem_ctrls_0.preBackEnergy              2031360                       # Energy for precharge background per rank (pJ)
system.mem_ctrls_0.actPowerDownEnergy        51155220                       # Energy for active power-down per rank (pJ)
system.mem_ctrls_0.prePowerDownEnergy        45425760                       # Energy for precharge power-down per rank (pJ)
system.mem_ctrls_0.selfRefreshEnergy       3611088600                       # Energy for self refresh per rank (pJ)
system.mem_ctrls_0.totalEnergy             3748142340                       # Total energy per rank (pJ)
system.mem_ctrls_0.averagePower            245.500613                       # Core power per rank (mW)
system.mem_ctrls_0.totalIdleTime          15236473375                       # Total Idle time Per DRAM Rank
system.mem_ctrls_0.memoryStateTime::IDLE      4320000                       # Time in different power states
system.mem_ctrls_0.memoryStateTime::REF      12310000                       # Time in different power states
system.mem_ctrls_0.memoryStateTime::SREF  15011687375                       # Time in different power states
system.mem_ctrls_0.memoryStateTime::PRE_PDN    118296750                       # Time in different power states
system.mem_ctrls_0.memoryStateTime::ACT       8547500                       # Time in different power states
system.mem_ctrls_0.memoryStateTime::ACT_PDN    112182500                       # Time in different power states
system.mem_ctrls_1.actEnergy                   135660                       # Energy for activate commands per rank (pJ)
system.mem_ctrls_1.preEnergy                    72105                       # Energy for precharge commands per rank (pJ)
system.mem_ctrls_1.readEnergy                  135660                       # Energy for read commands per rank (pJ)
system.mem_ctrls_1.writeEnergy                  57420                       # Energy for write commands per rank (pJ)
system.mem_ctrls_1.refreshEnergy         17209920.000000                       # Energy for refresh commands per rank (pJ)
system.mem_ctrls_1.actBackEnergy              6808650                       # Energy for active background per rank (pJ)
system.mem_ctrls_1.preBackEnergy              1157280                       # Energy for precharge background per rank (pJ)
system.mem_ctrls_1.actPowerDownEnergy        27465450                       # Energy for active power-down per rank (pJ)
system.mem_ctrls_1.prePowerDownEnergy        28642080                       # Energy for precharge power-down per rank (pJ)
system.mem_ctrls_1.selfRefreshEnergy       3632469060                       # Energy for self refresh per rank (pJ)
system.mem_ctrls_1.totalEnergy             3714153285                       # Total energy per rank (pJ)
system.mem_ctrls_1.averagePower            243.274354                       # Core power per rank (mW)
system.mem_ctrls_1.totalIdleTime          15245248375                       # Total Idle time Per DRAM Rank
system.mem_ctrls_1.memoryStateTime::IDLE      2436000                       # Time in different power states
system.mem_ctrls_1.memoryStateTime::REF       7334000                       # Time in different power states
system.mem_ctrls_1.memoryStateTime::SREF  15114581375                       # Time in different power states
system.mem_ctrls_1.memoryStateTime::PRE_PDN     74590500                       # Time in different power states
system.mem_ctrls_1.memoryStateTime::ACT       8170500                       # Time in different power states
system.mem_ctrls_1.memoryStateTime::ACT_PDN     60231750                       # Time in different power states
system.pwrStateResidencyTicks::UNDEFINED  15267344125                       # Cumulative time (in ticks) in various power states
system.cpu0.branchPred.lookups                6048023                       # Number of BP lookups
system.cpu0.branchPred.condPredicted          6048023                       # Number of conditional branches predicted
system.cpu0.branchPred.condIncorrect            32605                       # Number of conditional branches incorrect
system.cpu0.branchPred.BTBLookups             6007176                       # Number of BTB lookups
system.cpu0.branchPred.BTBHits                      0                       # Number of BTB hits
system.cpu0.branchPred.BTBCorrect                   0                       # Number of correct BTB predictions (this stat may not work properly.
system.cpu0.branchPred.BTBHitPct             0.000000                       # BTB Hit Percentage
system.cpu0.branchPred.usedRAS                  18282                       # Number of times the RAS was used to get a target.
system.cpu0.branchPred.RASInCorrect              3851                       # Number of incorrect RAS predictions.
system.cpu0.branchPred.indirectLookups        6007176                       # Number of indirect predictor lookups.
system.cpu0.branchPred.indirectHits           5832057                       # Number of indirect target hits.
system.cpu0.branchPred.indirectMisses          175119                       # Number of indirect misses.
system.cpu0.branchPredindirectMispredicted        22981                       # Number of mispredicted indirect branches.
system.cpu_voltage_domain.voltage                   1                       # Voltage in Volts
system.cpu_clk_domain.clock                       500                       # Clock period in ticks
system.cpu0.dtb.walker.pwrStateResidencyTicks::UNDEFINED  15267344125                       # Cumulative time (in ticks) in various power states
system.cpu0.dtb.rdAccesses                    1897692                       # TLB accesses on read requests
system.cpu0.dtb.wrAccesses                    5983335                       # TLB accesses on write requests
system.cpu0.dtb.rdMisses                         3947                       # TLB misses on read requests
system.cpu0.dtb.wrMisses                        12438                       # TLB misses on write requests
system.cpu0.apic_clk_domain.clock                8000                       # Clock period in ticks
system.cpu0.interrupts.pwrStateResidencyTicks::UNDEFINED  15267344125                       # Cumulative time (in ticks) in various power states
system.cpu0.itb.walker.pwrStateResidencyTicks::UNDEFINED  15267344125                       # Cumulative time (in ticks) in various power states
system.cpu0.itb.rdAccesses                          0                       # TLB accesses on read requests
system.cpu0.itb.wrAccesses                     254686                       # TLB accesses on write requests
system.cpu0.itb.rdMisses                            0                       # TLB misses on read requests
system.cpu0.itb.wrMisses                          513                       # TLB misses on write requests
system.cpu0.workload.numSyscalls                  275                       # Number of system calls
system.cpu0.pwrStateResidencyTicks::ON    15267344125                       # Cumulative time (in ticks) in various power states
system.cpu0.numCycles                        30534688                       # number of cpu cycles simulated
system.cpu0.numWorkItemsStarted                     0                       # number of work items this cpu started
system.cpu0.numWorkItemsCompleted                   0                       # number of work items this cpu completed
system.cpu0.fetch.icacheStallCycles            313423                       # Number of cycles fetch is stalled on an Icache miss
system.cpu0.fetch.Insts                      26840995                       # Number of instructions fetch has processed
system.cpu0.fetch.Branches                    6048023                       # Number of branches that fetch encountered
system.cpu0.fetch.predictedBranches           5850339                       # Number of branches that fetch has predicted taken
system.cpu0.fetch.Cycles                     30181176                       # Number of cycles fetch has run and was not squashing or blocked
system.cpu0.fetch.SquashCycles                  66842                       # Number of cycles fetch has spent squashing
system.cpu0.fetch.TlbCycles                         8                       # Number of cycles fetch has spent waiting for tlb
system.cpu0.fetch.MiscStallCycles                  80                       # Number of cycles fetch has spent waiting on interrupts, or bad addresses, or out of MSHRs
system.cpu0.fetch.PendingTrapStallCycles          566                       # Number of stall cycles due to pending traps
system.cpu0.fetch.CacheLines                   254551                       # Number of cache lines fetched
system.cpu0.fetch.IcacheSquashes                 9767                       # Number of outstanding Icache misses that were squashed
system.cpu0.fetch.ItlbSquashes                      1                       # Number of outstanding ITLB misses that were squashed
system.cpu0.fetch.rateDist::samples          30528674                       # Number of instructions fetched each cycle (Total)
system.cpu0.fetch.rateDist::mean             1.775800                       # Number of instructions fetched each cycle (Total)
system.cpu0.fetch.rateDist::stdev            3.187526                       # Number of instructions fetched each cycle (Total)
system.cpu0.fetch.rateDist::underflows              0      0.00%      0.00% # Number of instructions fetched each cycle (Total)
system.cpu0.fetch.rateDist::0                22503181     73.71%     73.71% # Number of instructions fetched each cycle (Total)
system.cpu0.fetch.rateDist::1                  215582      0.71%     74.42% # Number of instructions fetched each cycle (Total)
system.cpu0.fetch.rateDist::2                  229816      0.75%     75.17% # Number of instructions fetched each cycle (Total)
system.cpu0.fetch.rateDist::3                 1232019      4.04%     79.21% # Number of instructions fetched each cycle (Total)
system.cpu0.fetch.rateDist::4                  144726      0.47%     79.68% # Number of instructions fetched each cycle (Total)
system.cpu0.fetch.rateDist::5                   44277      0.15%     79.83% # Number of instructions fetched each cycle (Total)
system.cpu0.fetch.rateDist::6                   47910      0.16%     79.98% # Number of instructions fetched each cycle (Total)
system.cpu0.fetch.rateDist::7                  135499      0.44%     80.43% # Number of instructions fetched each cycle (Total)
system.cpu0.fetch.rateDist::8                 5975664     19.57%    100.00% # Number of instructions fetched each cycle (Total)
system.cpu0.fetch.rateDist::overflows               0      0.00%    100.00% # Number of instructions fetched each cycle (Total)
system.cpu0.fetch.rateDist::min_value               0                       # Number of instructions fetched each cycle (Total)
system.cpu0.fetch.rateDist::max_value               8                       # Number of instructions fetched each cycle (Total)
system.cpu0.fetch.rateDist::total            30528674                       # Number of instructions fetched each cycle (Total)
system.cpu0.fetch.branchRate                 0.198071                       # Number of branch fetches per cycle
system.cpu0.fetch.rate                       0.879033                       # Number of inst fetches per cycle
system.cpu0.decode.IdleCycles                 1893344                       # Number of cycles decode is idle
system.cpu0.decode.BlockedCycles             21792593                       # Number of cycles decode is blocked
system.cpu0.decode.RunCycles                  3113971                       # Number of cycles decode is running
system.cpu0.decode.UnblockCycles              3695345                       # Number of cycles decode is unblocking
system.cpu0.decode.SquashCycles                 33421                       # Number of cycles decode is squashing
system.cpu0.decode.DecodedInsts              53950920                       # Number of instructions handled by decode
system.cpu0.rename.SquashCycles                 33421                       # Number of cycles rename is squashing
system.cpu0.rename.IdleCycles                 3174557                       # Number of cycles rename is idle
system.cpu0.rename.BlockCycles                 198535                       # Number of cycles rename is blocking
system.cpu0.rename.serializeStallCycles         11779                       # count of cycles rename stalled for serializing inst
system.cpu0.rename.RunCycles                  5523462                       # Number of cycles rename is running
system.cpu0.rename.UnblockCycles             21586920                       # Number of cycles rename is unblocking
system.cpu0.rename.RenamedInsts              53792361                       # Number of instructions processed by rename
system.cpu0.rename.ROBFullEvents                 3623                       # Number of times rename has blocked due to ROB full
system.cpu0.rename.IQFullEvents                 89999                       # Number of times rename has blocked due to IQ full
system.cpu0.rename.LQFullEvents                 24577                       # Number of times rename has blocked due to LQ full
system.cpu0.rename.SQFullEvents              20219401                       # Number of times rename has blocked due to SQ full
system.cpu0.rename.RenamedOperands           68789043                       # Number of destination operands rename has renamed
system.cpu0.rename.RenameLookups            113585265                       # Number of register rename lookups that rename has made
system.cpu0.rename.int_rename_lookups        61942976                       # Number of integer rename lookups
system.cpu0.rename.fp_rename_lookups          1658725                       # Number of floating rename lookups
system.cpu0.rename.CommittedMaps             67456704                       # Number of HB maps that are committed
system.cpu0.rename.UndoneMaps                 1332299                       # Number of HB maps that are undone due to squashing
system.cpu0.rename.serializingInsts               629                       # count of serializing insts renamed
system.cpu0.rename.tempSerializingInsts           669                       # count of temporary serializing insts renamed
system.cpu0.rename.skidInsts                 22412728                       # count of insts added to the skid buffer
system.cpu0.memDep0.insertedLoads             1951850                       # Number of loads inserted to the mem dependence unit.
system.cpu0.memDep0.insertedStores            6023241                       # Number of stores inserted to the mem dependence unit.
system.cpu0.memDep0.conflictingLoads           111605                       # Number of conflicting loads.
system.cpu0.memDep0.conflictingStores          102598                       # Number of conflicting stores.
system.cpu0.iq.iqInstsAdded                  53476089                       # Number of instructions added to the IQ (excludes non-spec)
system.cpu0.iq.iqNonSpecInstsAdded               3686                       # Number of non-speculative instructions added to the IQ
system.cpu0.iq.iqInstsIssued                 53165734                       # Number of instructions issued
system.cpu0.iq.iqSquashedInstsIssued             9598                       # Number of squashed instructions issued
system.cpu0.iq.iqSquashedInstsExamined         846415                       # Number of squashed instructions iterated over during squash; mainly for profiling
system.cpu0.iq.iqSquashedOperandsExamined      1251087                       # Number of squashed operands that are examined and possibly removed from graph
system.cpu0.iq.iqSquashedNonSpecRemoved          3081                       # Number of squashed non-spec instructions that were removed
system.cpu0.iq.issued_per_cycle::samples     30528674                       # Number of insts issued each cycle
system.cpu0.iq.issued_per_cycle::mean        1.741502                       # Number of insts issued each cycle
system.cpu0.iq.issued_per_cycle::stdev       2.238576                       # Number of insts issued each cycle
system.cpu0.iq.issued_per_cycle::underflows            0      0.00%      0.00% # Number of insts issued each cycle
system.cpu0.iq.issued_per_cycle::0           16187776     53.02%     53.02% # Number of insts issued each cycle
system.cpu0.iq.issued_per_cycle::1            2275390      7.45%     60.48% # Number of insts issued each cycle
system.cpu0.iq.issued_per_cycle::2            2498611      8.18%     68.66% # Number of insts issued each cycle
system.cpu0.iq.issued_per_cycle::3            1654158      5.42%     74.08% # Number of insts issued each cycle
system.cpu0.iq.issued_per_cycle::4            1478651      4.84%     78.92% # Number of insts issued each cycle
system.cpu0.iq.issued_per_cycle::5            4755425     15.58%     94.50% # Number of insts issued each cycle
system.cpu0.iq.issued_per_cycle::6             647111      2.12%     96.62% # Number of insts issued each cycle
system.cpu0.iq.issued_per_cycle::7             896163      2.94%     99.56% # Number of insts issued each cycle
system.cpu0.iq.issued_per_cycle::8             135389      0.44%    100.00% # Number of insts issued each cycle
system.cpu0.iq.issued_per_cycle::overflows            0      0.00%    100.00% # Number of insts issued each cycle
system.cpu0.iq.issued_per_cycle::min_value            0                       # Number of insts issued each cycle
system.cpu0.iq.issued_per_cycle::max_value            8                       # Number of insts issued each cycle
system.cpu0.iq.issued_per_cycle::total       30528674                       # Number of insts issued each cycle
system.cpu0.iq.fu_full::No_OpClass                  0      0.00%      0.00% # attempts to use FU when none available
system.cpu0.iq.fu_full::IntAlu                 398988     94.44%     94.44% # attempts to use FU when none available
system.cpu0.iq.fu_full::IntMult                     0      0.00%     94.44% # attempts to use FU when none available
system.cpu0.iq.fu_full::IntDiv                      0      0.00%     94.44% # attempts to use FU when none available
system.cpu0.iq.fu_full::FloatAdd                 2275      0.54%     94.98% # attempts to use FU when none available
system.cpu0.iq.fu_full::FloatCmp                    0      0.00%     94.98% # attempts to use FU when none available
system.cpu0.iq.fu_full::FloatCvt                    0      0.00%     94.98% # attempts to use FU when none available
system.cpu0.iq.fu_full::FloatMult                   0      0.00%     94.98% # attempts to use FU when none available
system.cpu0.iq.fu_full::FloatMultAcc                0      0.00%     94.98% # attempts to use FU when none available
system.cpu0.iq.fu_full::FloatDiv                    0      0.00%     94.98% # attempts to use FU when none available
system.cpu0.iq.fu_full::FloatMisc                   0      0.00%     94.98% # attempts to use FU when none available
system.cpu0.iq.fu_full::FloatSqrt                   0      0.00%     94.98% # attempts to use FU when none available
system.cpu0.iq.fu_full::SimdAdd                     0      0.00%     94.98% # attempts to use FU when none available
system.cpu0.iq.fu_full::SimdAddAcc                  0      0.00%     94.98% # attempts to use FU when none available
system.cpu0.iq.fu_full::SimdAlu                     0      0.00%     94.98% # attempts to use FU when none available
system.cpu0.iq.fu_full::SimdCmp                     0      0.00%     94.98% # attempts to use FU when none available
system.cpu0.iq.fu_full::SimdCvt                     0      0.00%     94.98% # attempts to use FU when none available
system.cpu0.iq.fu_full::SimdMisc                    0      0.00%     94.98% # attempts to use FU when none available
system.cpu0.iq.fu_full::SimdMult                    0      0.00%     94.98% # attempts to use FU when none available
system.cpu0.iq.fu_full::SimdMultAcc                 0      0.00%     94.98% # attempts to use FU when none available
system.cpu0.iq.fu_full::SimdShift                   0      0.00%     94.98% # attempts to use FU when none available
system.cpu0.iq.fu_full::SimdShiftAcc                0      0.00%     94.98% # attempts to use FU when none available
system.cpu0.iq.fu_full::SimdSqrt                    0      0.00%     94.98% # attempts to use FU when none available
system.cpu0.iq.fu_full::SimdFloatAdd                0      0.00%     94.98% # attempts to use FU when none available
system.cpu0.iq.fu_full::SimdFloatAlu                0      0.00%     94.98% # attempts to use FU when none available
system.cpu0.iq.fu_full::SimdFloatCmp                0      0.00%     94.98% # attempts to use FU when none available
system.cpu0.iq.fu_full::SimdFloatCvt                0      0.00%     94.98% # attempts to use FU when none available
system.cpu0.iq.fu_full::SimdFloatDiv                0      0.00%     94.98% # attempts to use FU when none available
system.cpu0.iq.fu_full::SimdFloatMisc               0      0.00%     94.98% # attempts to use FU when none available
system.cpu0.iq.fu_full::SimdFloatMult               0      0.00%     94.98% # attempts to use FU when none available
system.cpu0.iq.fu_full::SimdFloatMultAcc            0      0.00%     94.98% # attempts to use FU when none available
system.cpu0.iq.fu_full::SimdFloatSqrt               0      0.00%     94.98% # attempts to use FU when none available
system.cpu0.iq.fu_full::MemRead                  4045      0.96%     95.93% # attempts to use FU when none available
system.cpu0.iq.fu_full::MemWrite                 1063      0.25%     96.19% # attempts to use FU when none available
system.cpu0.iq.fu_full::FloatMemRead            15057      3.56%     99.75% # attempts to use FU when none available
system.cpu0.iq.fu_full::FloatMemWrite            1054      0.25%    100.00% # attempts to use FU when none available
system.cpu0.iq.fu_full::IprAccess                   0      0.00%    100.00% # attempts to use FU when none available
system.cpu0.iq.fu_full::InstPrefetch                0      0.00%    100.00% # attempts to use FU when none available
system.cpu0.iq.FU_type_0::No_OpClass            21779      0.04%      0.04% # Type of FU issued
system.cpu0.iq.FU_type_0::IntAlu             44791649     84.25%     84.29% # Type of FU issued
system.cpu0.iq.FU_type_0::IntMult                 437      0.00%     84.29% # Type of FU issued
system.cpu0.iq.FU_type_0::IntDiv                 1483      0.00%     84.29% # Type of FU issued
system.cpu0.iq.FU_type_0::FloatAdd             447660      0.84%     85.14% # Type of FU issued
system.cpu0.iq.FU_type_0::FloatCmp                  0      0.00%     85.14% # Type of FU issued
system.cpu0.iq.FU_type_0::FloatCvt                  0      0.00%     85.14% # Type of FU issued
system.cpu0.iq.FU_type_0::FloatMult                 0      0.00%     85.14% # Type of FU issued
system.cpu0.iq.FU_type_0::FloatMultAcc              0      0.00%     85.14% # Type of FU issued
system.cpu0.iq.FU_type_0::FloatDiv                  0      0.00%     85.14% # Type of FU issued
system.cpu0.iq.FU_type_0::FloatMisc                 0      0.00%     85.14% # Type of FU issued
system.cpu0.iq.FU_type_0::FloatSqrt                 0      0.00%     85.14% # Type of FU issued
system.cpu0.iq.FU_type_0::SimdAdd                   0      0.00%     85.14% # Type of FU issued
system.cpu0.iq.FU_type_0::SimdAddAcc                0      0.00%     85.14% # Type of FU issued
system.cpu0.iq.FU_type_0::SimdAlu                   0      0.00%     85.14% # Type of FU issued
system.cpu0.iq.FU_type_0::SimdCmp                   0      0.00%     85.14% # Type of FU issued
system.cpu0.iq.FU_type_0::SimdCvt                   0      0.00%     85.14% # Type of FU issued
system.cpu0.iq.FU_type_0::SimdMisc                  0      0.00%     85.14% # Type of FU issued
system.cpu0.iq.FU_type_0::SimdMult                  0      0.00%     85.14% # Type of FU issued
system.cpu0.iq.FU_type_0::SimdMultAcc               0      0.00%     85.14% # Type of FU issued
system.cpu0.iq.FU_type_0::SimdShift                 0      0.00%     85.14% # Type of FU issued
system.cpu0.iq.FU_type_0::SimdShiftAcc              0      0.00%     85.14% # Type of FU issued
system.cpu0.iq.FU_type_0::SimdSqrt                  0      0.00%     85.14% # Type of FU issued
system.cpu0.iq.FU_type_0::SimdFloatAdd              0      0.00%     85.14% # Type of FU issued
system.cpu0.iq.FU_type_0::SimdFloatAlu              0      0.00%     85.14% # Type of FU issued
system.cpu0.iq.FU_type_0::SimdFloatCmp              0      0.00%     85.14% # Type of FU issued
system.cpu0.iq.FU_type_0::SimdFloatCvt              0      0.00%     85.14% # Type of FU issued
system.cpu0.iq.FU_type_0::SimdFloatDiv              0      0.00%     85.14% # Type of FU issued
system.cpu0.iq.FU_type_0::SimdFloatMisc             0      0.00%     85.14% # Type of FU issued
system.cpu0.iq.FU_type_0::SimdFloatMult             0      0.00%     85.14% # Type of FU issued
system.cpu0.iq.FU_type_0::SimdFloatMultAcc            0      0.00%     85.14% # Type of FU issued
system.cpu0.iq.FU_type_0::SimdFloatSqrt             0      0.00%     85.14% # Type of FU issued
system.cpu0.iq.FU_type_0::MemRead             1657837      3.12%     88.25% # Type of FU issued
system.cpu0.iq.FU_type_0::MemWrite            5781181     10.87%     99.13% # Type of FU issued
system.cpu0.iq.FU_type_0::FloatMemRead         254243      0.48%     99.61% # Type of FU issued
system.cpu0.iq.FU_type_0::FloatMemWrite        209465      0.39%    100.00% # Type of FU issued
system.cpu0.iq.FU_type_0::IprAccess                 0      0.00%    100.00% # Type of FU issued
system.cpu0.iq.FU_type_0::InstPrefetch              0      0.00%    100.00% # Type of FU issued
system.cpu0.iq.FU_type_0::total              53165734                       # Type of FU issued
system.cpu0.iq.rate                          1.741159                       # Inst issue rate
system.cpu0.iq.fu_busy_cnt                     422482                       # FU busy when requested
system.cpu0.iq.fu_busy_rate                  0.007947                       # FU busy rate (busy events/executed inst)
system.cpu0.iq.int_inst_queue_reads         135255636                       # Number of integer instruction queue reads
system.cpu0.iq.int_inst_queue_writes         53210068                       # Number of integer instruction queue writes
system.cpu0.iq.int_inst_queue_wakeup_accesses     52050503                       # Number of integer instruction queue wakeup accesses
system.cpu0.iq.fp_inst_queue_reads            2036581                       # Number of floating instruction queue reads
system.cpu0.iq.fp_inst_queue_writes           1117125                       # Number of floating instruction queue writes
system.cpu0.iq.fp_inst_queue_wakeup_accesses       998884                       # Number of floating instruction queue wakeup accesses
system.cpu0.iq.vec_inst_queue_reads                 0                       # Number of vector instruction queue reads
system.cpu0.iq.vec_inst_queue_writes                0                       # Number of vector instruction queue writes
system.cpu0.iq.vec_inst_queue_wakeup_accesses            0                       # Number of vector instruction queue wakeup accesses
system.cpu0.iq.int_alu_accesses              52539176                       # Number of integer alu accesses
system.cpu0.iq.fp_alu_accesses                1027261                       # Number of floating point alu accesses
system.cpu0.iq.vec_alu_accesses                     0                       # Number of vector alu accesses
system.cpu0.iew.lsq.thread0.forwLoads            8238                       # Number of loads that had data forwarded from stores
system.cpu0.iew.lsq.thread0.invAddrLoads            0                       # Number of loads ignored due to an invalid address
system.cpu0.iew.lsq.thread0.squashedLoads       118247                       # Number of loads squashed
system.cpu0.iew.lsq.thread0.ignoredResponses          162                       # Number of memory responses ignored because the instruction is squashed
system.cpu0.iew.lsq.thread0.memOrderViolation         1066                       # Number of memory ordering violations
system.cpu0.iew.lsq.thread0.squashedStores        64012                       # Number of stores squashed
system.cpu0.iew.lsq.thread0.invAddrSwpfs            0                       # Number of software prefetches ignored due to an invalid address
system.cpu0.iew.lsq.thread0.blockedLoads            0                       # Number of blocked loads due to partial load-store forwarding
system.cpu0.iew.lsq.thread0.rescheduledLoads           45                       # Number of loads that were rescheduled
system.cpu0.iew.lsq.thread0.cacheBlocked          623                       # Number of times an access to memory failed due to the cache being blocked
system.cpu0.iew.iewIdleCycles                       0                       # Number of cycles IEW is idle
system.cpu0.iew.iewSquashCycles                 33421                       # Number of cycles IEW is squashing
system.cpu0.iew.iewBlockCycles                 105576                       # Number of cycles IEW is blocking
system.cpu0.iew.iewUnblockCycles                78887                       # Number of cycles IEW is unblocking
system.cpu0.iew.iewDispatchedInsts           53479775                       # Number of instructions dispatched to IQ
system.cpu0.iew.iewDispSquashedInsts             3563                       # Number of squashed instructions skipped by dispatch
system.cpu0.iew.iewDispLoadInsts              1951850                       # Number of dispatched load instructions
system.cpu0.iew.iewDispStoreInsts             6023241                       # Number of dispatched store instructions
system.cpu0.iew.iewDispNonSpecInsts              1607                       # Number of dispatched non-speculative instructions
system.cpu0.iew.iewIQFullEvents                   631                       # Number of times the IQ has become full, causing a stall
system.cpu0.iew.iewLSQFullEvents                78103                       # Number of times the LSQ has become full, causing a stall
system.cpu0.iew.memOrderViolationEvents          1066                       # Number of memory order violations
system.cpu0.iew.predictedTakenIncorrect          9059                       # Number of branches that were predicted taken incorrectly
system.cpu0.iew.predictedNotTakenIncorrect        31454                       # Number of branches that were predicted not taken incorrectly
system.cpu0.iew.branchMispredicts               40513                       # Number of branch mispredicts detected at execute
system.cpu0.iew.iewExecutedInsts             53085872                       # Number of executed instructions
system.cpu0.iew.iewExecLoadInsts              1896822                       # Number of load instructions executed
system.cpu0.iew.iewExecSquashedInsts            79857                       # Number of squashed instructions skipped in execute
system.cpu0.iew.exec_swp                            0                       # number of swp insts executed
system.cpu0.iew.exec_nop                            0                       # number of nop insts executed
system.cpu0.iew.exec_refs                     7880085                       # number of memory reference insts executed
system.cpu0.iew.exec_branches                 5919875                       # Number of branches executed
system.cpu0.iew.exec_stores                   5983263                       # Number of stores executed
system.cpu0.iew.exec_rate                    1.738543                       # Inst execution rate
system.cpu0.iew.wb_sent                      53065815                       # cumulative count of insts sent to commit
system.cpu0.iew.wb_count                     53049387                       # cumulative count of insts written-back
system.cpu0.iew.wb_producers                 38810130                       # num instructions producing a value
system.cpu0.iew.wb_consumers                 53977425                       # num instructions consuming a value
system.cpu0.iew.wb_rate                      1.737348                       # insts written-back per cycle
system.cpu0.iew.wb_fanout                    0.719007                       # average fanout of values written-back
system.cpu0.commit.commitSquashedInsts         847021                       # The number of squashed insts skipped by commit
system.cpu0.commit.commitNonSpecStalls            605                       # The number of times commit has been forced to stall to communicate backwards
system.cpu0.commit.branchMispredicts            32638                       # The number of times a branch was mispredicted
system.cpu0.commit.committed_per_cycle::samples     30396454                       # Number of insts commited each cycle
system.cpu0.commit.committed_per_cycle::mean     1.731562                       # Number of insts commited each cycle
system.cpu0.commit.committed_per_cycle::stdev     2.332314                       # Number of insts commited each cycle
system.cpu0.commit.committed_per_cycle::underflows            0      0.00%      0.00% # Number of insts commited each cycle
system.cpu0.commit.committed_per_cycle::0     16525839     54.37%     54.37% # Number of insts commited each cycle
system.cpu0.commit.committed_per_cycle::1      1695795      5.58%     59.95% # Number of insts commited each cycle
system.cpu0.commit.committed_per_cycle::2      1519948      5.00%     64.95% # Number of insts commited each cycle
system.cpu0.commit.committed_per_cycle::3      5190840     17.08%     82.02% # Number of insts commited each cycle
system.cpu0.commit.committed_per_cycle::4       339706      1.12%     83.14% # Number of insts commited each cycle
system.cpu0.commit.committed_per_cycle::5      3039117     10.00%     93.14% # Number of insts commited each cycle
system.cpu0.commit.committed_per_cycle::6       394810      1.30%     94.44% # Number of insts commited each cycle
system.cpu0.commit.committed_per_cycle::7       121329      0.40%     94.84% # Number of insts commited each cycle
system.cpu0.commit.committed_per_cycle::8      1569070      5.16%    100.00% # Number of insts commited each cycle
system.cpu0.commit.committed_per_cycle::overflows            0      0.00%    100.00% # Number of insts commited each cycle
system.cpu0.commit.committed_per_cycle::min_value            0                       # Number of insts commited each cycle
system.cpu0.commit.committed_per_cycle::max_value            8                       # Number of insts commited each cycle
system.cpu0.commit.committed_per_cycle::total     30396454                       # Number of insts commited each cycle
system.cpu0.commit.committedInsts            25955989                       # Number of instructions committed
system.cpu0.commit.committedOps              52633343                       # Number of ops (including micro ops) committed
system.cpu0.commit.swp_count                        0                       # Number of s/w prefetches committed
system.cpu0.commit.refs                       7792830                       # Number of memory references committed
system.cpu0.commit.loads                      1833603                       # Number of loads committed
system.cpu0.commit.membars                        220                       # Number of memory barriers committed
system.cpu0.commit.branches                   5887633                       # Number of branches committed
system.cpu0.commit.vec_insts                        0                       # Number of committed Vector instructions.
system.cpu0.commit.fp_insts                    981173                       # Number of committed floating point instructions.
system.cpu0.commit.int_insts                 52107948                       # Number of committed integer instructions.
system.cpu0.commit.function_calls                5742                       # Number of function calls committed.
system.cpu0.commit.op_class_0::No_OpClass        12286      0.02%      0.02% # Class of committed instruction
system.cpu0.commit.op_class_0::IntAlu        44388818     84.34%     84.36% # Class of committed instruction
system.cpu0.commit.op_class_0::IntMult            363      0.00%     84.36% # Class of committed instruction
system.cpu0.commit.op_class_0::IntDiv            1210      0.00%     84.36% # Class of committed instruction
system.cpu0.commit.op_class_0::FloatAdd        437836      0.83%     85.19% # Class of committed instruction
system.cpu0.commit.op_class_0::FloatCmp             0      0.00%     85.19% # Class of committed instruction
system.cpu0.commit.op_class_0::FloatCvt             0      0.00%     85.19% # Class of committed instruction
system.cpu0.commit.op_class_0::FloatMult            0      0.00%     85.19% # Class of committed instruction
system.cpu0.commit.op_class_0::FloatMultAcc            0      0.00%     85.19% # Class of committed instruction
system.cpu0.commit.op_class_0::FloatDiv             0      0.00%     85.19% # Class of committed instruction
system.cpu0.commit.op_class_0::FloatMisc            0      0.00%     85.19% # Class of committed instruction
system.cpu0.commit.op_class_0::FloatSqrt            0      0.00%     85.19% # Class of committed instruction
system.cpu0.commit.op_class_0::SimdAdd              0      0.00%     85.19% # Class of committed instruction
system.cpu0.commit.op_class_0::SimdAddAcc            0      0.00%     85.19% # Class of committed instruction
system.cpu0.commit.op_class_0::SimdAlu              0      0.00%     85.19% # Class of committed instruction
system.cpu0.commit.op_class_0::SimdCmp              0      0.00%     85.19% # Class of committed instruction
system.cpu0.commit.op_class_0::SimdCvt              0      0.00%     85.19% # Class of committed instruction
system.cpu0.commit.op_class_0::SimdMisc             0      0.00%     85.19% # Class of committed instruction
system.cpu0.commit.op_class_0::SimdMult             0      0.00%     85.19% # Class of committed instruction
system.cpu0.commit.op_class_0::SimdMultAcc            0      0.00%     85.19% # Class of committed instruction
system.cpu0.commit.op_class_0::SimdShift            0      0.00%     85.19% # Class of committed instruction
system.cpu0.commit.op_class_0::SimdShiftAcc            0      0.00%     85.19% # Class of committed instruction
system.cpu0.commit.op_class_0::SimdSqrt             0      0.00%     85.19% # Class of committed instruction
system.cpu0.commit.op_class_0::SimdFloatAdd            0      0.00%     85.19% # Class of committed instruction
system.cpu0.commit.op_class_0::SimdFloatAlu            0      0.00%     85.19% # Class of committed instruction
system.cpu0.commit.op_class_0::SimdFloatCmp            0      0.00%     85.19% # Class of committed instruction
system.cpu0.commit.op_class_0::SimdFloatCvt            0      0.00%     85.19% # Class of committed instruction
system.cpu0.commit.op_class_0::SimdFloatDiv            0      0.00%     85.19% # Class of committed instruction
system.cpu0.commit.op_class_0::SimdFloatMisc            0      0.00%     85.19% # Class of committed instruction
system.cpu0.commit.op_class_0::SimdFloatMult            0      0.00%     85.19% # Class of committed instruction
system.cpu0.commit.op_class_0::SimdFloatMultAcc            0      0.00%     85.19% # Class of committed instruction
system.cpu0.commit.op_class_0::SimdFloatSqrt            0      0.00%     85.19% # Class of committed instruction
system.cpu0.commit.op_class_0::MemRead        1590544      3.02%     88.22% # Class of committed instruction
system.cpu0.commit.op_class_0::MemWrite       5751998     10.93%     99.14% # Class of committed instruction
system.cpu0.commit.op_class_0::FloatMemRead       243059      0.46%     99.61% # Class of committed instruction
system.cpu0.commit.op_class_0::FloatMemWrite       207229      0.39%    100.00% # Class of committed instruction
system.cpu0.commit.op_class_0::IprAccess            0      0.00%    100.00% # Class of committed instruction
system.cpu0.commit.op_class_0::InstPrefetch            0      0.00%    100.00% # Class of committed instruction
system.cpu0.commit.op_class_0::total         52633343                       # Class of committed instruction
system.cpu0.commit.bw_lim_events              1569070                       # number cycles where commit BW limit reached
system.cpu0.rob.rob_reads                    82307748                       # The number of ROB reads
system.cpu0.rob.rob_writes                  107095685                       # The number of ROB writes
system.cpu0.timesIdled                            924                       # Number of times that the entire CPU went into an idle state and unscheduled itself
system.cpu0.idleCycles                           6014                       # Total number of cycles that the CPU has spent unscheduled due to idling
system.cpu0.committedInsts                   25955989                       # Number of Instructions Simulated
system.cpu0.committedOps                     52633343                       # Number of Ops (including micro ops) Simulated
system.cpu0.cpi                              1.176402                       # CPI: Cycles Per Instruction
system.cpu0.cpi_total                        1.176402                       # CPI: Total CPI of All Threads
system.cpu0.ipc                              0.850049                       # IPC: Instructions Per Cycle
system.cpu0.ipc_total                        0.850049                       # IPC: Total IPC of All Threads
system.cpu0.int_regfile_reads                60807602                       # number of integer regfile reads
system.cpu0.int_regfile_writes               40354545                       # number of integer regfile writes
system.cpu0.fp_regfile_reads                  1545971                       # number of floating regfile reads
system.cpu0.fp_regfile_writes                  785699                       # number of floating regfile writes
system.cpu0.cc_regfile_reads                 29527022                       # number of cc regfile reads
system.cpu0.cc_regfile_writes                26798136                       # number of cc regfile writes
system.cpu0.misc_regfile_reads               19755617                       # number of misc regfile reads
system.cpu0.dcache.tags.pwrStateResidencyTicks::UNDEFINED  15267344125                       # Cumulative time (in ticks) in various power states
system.cpu0.dcache.tags.replacements           731484                       # number of replacements
system.cpu0.dcache.tags.tagsinuse                1024                       # Cycle average of tags in use
system.cpu0.dcache.tags.total_refs            7096598                       # Total number of references to valid blocks.
system.cpu0.dcache.tags.sampled_refs           731484                       # Sample count of references to valid blocks.
system.cpu0.dcache.tags.avg_refs             9.701645                       # Average number of references to valid blocks.
system.cpu0.dcache.tags.warmup_cycle                0                       # Cycle when the warmup percentage was hit.
system.cpu0.dcache.tags.occ_blocks::cpu0.data         1024                       # Average occupied blocks per requestor
system.cpu0.dcache.tags.occ_percent::cpu0.data            1                       # Average percentage of cache occupancy
system.cpu0.dcache.tags.occ_percent::total            1                       # Average percentage of cache occupancy
system.cpu0.dcache.tags.occ_task_id_blocks::1024         1024                       # Occupied blocks per task id
system.cpu0.dcache.tags.age_task_id_blocks_1024::0          380                       # Occupied blocks per task id
system.cpu0.dcache.tags.age_task_id_blocks_1024::1          644                       # Occupied blocks per task id
system.cpu0.dcache.tags.occ_task_id_percent::1024            1                       # Percentage of cache occupancy per task id
system.cpu0.dcache.tags.tag_accesses         32112088                       # Number of tag accesses
system.cpu0.dcache.tags.data_accesses        32112088                       # Number of data accesses
system.cpu0.dcache.pwrStateResidencyTicks::UNDEFINED  15267344125                       # Cumulative time (in ticks) in various power states
system.cpu0.dcache.ReadReq_hits::cpu0.data      1871504                       # number of ReadReq hits
system.cpu0.dcache.ReadReq_hits::total        1871504                       # number of ReadReq hits
system.cpu0.dcache.WriteReq_hits::cpu0.data      5234764                       # number of WriteReq hits
system.cpu0.dcache.WriteReq_hits::total       5234764                       # number of WriteReq hits
system.cpu0.dcache.demand_hits::cpu0.data      7106268                       # number of demand (read+write) hits
system.cpu0.dcache.demand_hits::total         7106268                       # number of demand (read+write) hits
system.cpu0.dcache.overall_hits::cpu0.data      7106268                       # number of overall hits
system.cpu0.dcache.overall_hits::total        7106268                       # number of overall hits
system.cpu0.dcache.ReadReq_misses::cpu0.data        14363                       # number of ReadReq misses
system.cpu0.dcache.ReadReq_misses::total        14363                       # number of ReadReq misses
system.cpu0.dcache.WriteReq_misses::cpu0.data       724520                       # number of WriteReq misses
system.cpu0.dcache.WriteReq_misses::total       724520                       # number of WriteReq misses
system.cpu0.dcache.demand_misses::cpu0.data       738883                       # number of demand (read+write) misses
system.cpu0.dcache.demand_misses::total        738883                       # number of demand (read+write) misses
system.cpu0.dcache.overall_misses::cpu0.data       738883                       # number of overall misses
system.cpu0.dcache.overall_misses::total       738883                       # number of overall misses
system.cpu0.dcache.ReadReq_miss_latency::cpu0.data    183938000                       # number of ReadReq miss cycles
system.cpu0.dcache.ReadReq_miss_latency::total    183938000                       # number of ReadReq miss cycles
system.cpu0.dcache.WriteReq_miss_latency::cpu0.data   9421259996                       # number of WriteReq miss cycles
system.cpu0.dcache.WriteReq_miss_latency::total   9421259996                       # number of WriteReq miss cycles
system.cpu0.dcache.demand_miss_latency::cpu0.data   9605197996                       # number of demand (read+write) miss cycles
system.cpu0.dcache.demand_miss_latency::total   9605197996                       # number of demand (read+write) miss cycles
system.cpu0.dcache.overall_miss_latency::cpu0.data   9605197996                       # number of overall miss cycles
system.cpu0.dcache.overall_miss_latency::total   9605197996                       # number of overall miss cycles
system.cpu0.dcache.ReadReq_accesses::cpu0.data      1885867                       # number of ReadReq accesses(hits+misses)
system.cpu0.dcache.ReadReq_accesses::total      1885867                       # number of ReadReq accesses(hits+misses)
system.cpu0.dcache.WriteReq_accesses::cpu0.data      5959284                       # number of WriteReq accesses(hits+misses)
system.cpu0.dcache.WriteReq_accesses::total      5959284                       # number of WriteReq accesses(hits+misses)
system.cpu0.dcache.demand_accesses::cpu0.data      7845151                       # number of demand (read+write) accesses
system.cpu0.dcache.demand_accesses::total      7845151                       # number of demand (read+write) accesses
system.cpu0.dcache.overall_accesses::cpu0.data      7845151                       # number of overall (read+write) accesses
system.cpu0.dcache.overall_accesses::total      7845151                       # number of overall (read+write) accesses
system.cpu0.dcache.ReadReq_miss_rate::cpu0.data     0.007616                       # miss rate for ReadReq accesses
system.cpu0.dcache.ReadReq_miss_rate::total     0.007616                       # miss rate for ReadReq accesses
system.cpu0.dcache.WriteReq_miss_rate::cpu0.data     0.121578                       # miss rate for WriteReq accesses
system.cpu0.dcache.WriteReq_miss_rate::total     0.121578                       # miss rate for WriteReq accesses
system.cpu0.dcache.demand_miss_rate::cpu0.data     0.094183                       # miss rate for demand accesses
system.cpu0.dcache.demand_miss_rate::total     0.094183                       # miss rate for demand accesses
system.cpu0.dcache.overall_miss_rate::cpu0.data     0.094183                       # miss rate for overall accesses
system.cpu0.dcache.overall_miss_rate::total     0.094183                       # miss rate for overall accesses
system.cpu0.dcache.ReadReq_avg_miss_latency::cpu0.data 12806.377498                       # average ReadReq miss latency
system.cpu0.dcache.ReadReq_avg_miss_latency::total 12806.377498                       # average ReadReq miss latency
system.cpu0.dcache.WriteReq_avg_miss_latency::cpu0.data 13003.450555                       # average WriteReq miss latency
system.cpu0.dcache.WriteReq_avg_miss_latency::total 13003.450555                       # average WriteReq miss latency
system.cpu0.dcache.demand_avg_miss_latency::cpu0.data 12999.619691                       # average overall miss latency
system.cpu0.dcache.demand_avg_miss_latency::total 12999.619691                       # average overall miss latency
system.cpu0.dcache.overall_avg_miss_latency::cpu0.data 12999.619691                       # average overall miss latency
system.cpu0.dcache.overall_avg_miss_latency::total 12999.619691                       # average overall miss latency
system.cpu0.dcache.blocked_cycles::no_mshrs         2766                       # number of cycles access was blocked
system.cpu0.dcache.blocked_cycles::no_targets            0                       # number of cycles access was blocked
system.cpu0.dcache.blocked::no_mshrs              317                       # number of cycles access was blocked
system.cpu0.dcache.blocked::no_targets              0                       # number of cycles access was blocked
system.cpu0.dcache.avg_blocked_cycles::no_mshrs     8.725552                       # average number of cycles each access was blocked
[...]
system.l2.ReadCleanReq_miss_rate::cpu0.inst     0.004003                       # miss rate for ReadCleanReq accesses
system.l2.ReadCleanReq_miss_rate::total      0.004003                       # miss rate for ReadCleanReq accesses
system.l2.ReadSharedReq_miss_rate::cpu0.data     0.004013                       # miss rate for ReadSharedReq accesses
system.l2.ReadSharedReq_miss_rate::total     0.004013                       # miss rate for ReadSharedReq accesses
system.l2.demand_miss_rate::cpu0.inst        0.004003                       # miss rate for demand accesses
system.l2.demand_miss_rate::cpu0.data        0.000045                       # miss rate for demand accesses
system.l2.demand_miss_rate::total            0.000061                       # miss rate for demand accesses
system.l2.overall_miss_rate::cpu0.inst       0.004003                       # miss rate for overall accesses
system.l2.overall_miss_rate::cpu0.data       0.000045                       # miss rate for overall accesses
system.l2.overall_miss_rate::total           0.000061                       # miss rate for overall accesses
system.l2.ReadExReq_avg_miss_latency::cpu0.data       406900                       # average ReadExReq miss latency
system.l2.ReadExReq_avg_miss_latency::total       406900                       # average ReadExReq miss latency
system.l2.ReadCleanReq_avg_miss_latency::cpu0.inst 346916.666667                       # average ReadCleanReq miss latency
system.l2.ReadCleanReq_avg_miss_latency::total 346916.666667                       # average ReadCleanReq miss latency
system.l2.ReadSharedReq_avg_miss_latency::cpu0.data 438732.142857                       # average ReadSharedReq miss latency
system.l2.ReadSharedReq_avg_miss_latency::total 438732.142857                       # average ReadSharedReq miss latency
system.l2.demand_avg_miss_latency::cpu0.inst 346916.666667                       # average overall miss latency
system.l2.demand_avg_miss_latency::cpu0.data 433909.090909                       # average overall miss latency
system.l2.demand_avg_miss_latency::total 410711.111111                       # average overall miss latency
system.l2.overall_avg_miss_latency::cpu0.inst 346916.666667                       # average overall miss latency
system.l2.overall_avg_miss_latency::cpu0.data 433909.090909                       # average overall miss latency
system.l2.overall_avg_miss_latency::total 410711.111111                       # average overall miss latency
system.l2.blocked_cycles::no_mshrs                  0                       # number of cycles access was blocked
system.l2.blocked_cycles::no_targets                0                       # number of cycles access was blocked
system.l2.blocked::no_mshrs                         0                       # number of cycles access was blocked
system.l2.blocked::no_targets                       0                       # number of cycles access was blocked
system.l2.avg_blocked_cycles::no_mshrs            nan                       # average number of cycles each access was blocked
system.l2.avg_blocked_cycles::no_targets          nan                       # average number of cycles each access was blocked
system.l2.writebacks::writebacks                    4                       # number of writebacks
system.l2.writebacks::total                         4                       # number of writebacks
system.l2.ReadExReq_mshr_misses::cpu0.data            5                       # number of ReadExReq MSHR misses
system.l2.ReadExReq_mshr_misses::total              5                       # number of ReadExReq MSHR misses
system.l2.ReadCleanReq_mshr_misses::cpu0.inst           12                       # number of ReadCleanReq MSHR misses
system.l2.ReadCleanReq_mshr_misses::total           12                       # number of ReadCleanReq MSHR misses
system.l2.ReadSharedReq_mshr_misses::cpu0.data           28                       # number of ReadSharedReq MSHR misses
system.l2.ReadSharedReq_mshr_misses::total           28                       # number of ReadSharedReq MSHR misses
system.l2.demand_mshr_misses::cpu0.inst            12                       # number of demand (read+write) MSHR misses
system.l2.demand_mshr_misses::cpu0.data            33                       # number of demand (read+write) MSHR misses
system.l2.demand_mshr_misses::total                45                       # number of demand (read+write) MSHR misses
system.l2.overall_mshr_misses::cpu0.inst           12                       # number of overall MSHR misses
system.l2.overall_mshr_misses::cpu0.data           33                       # number of overall MSHR misses
system.l2.overall_mshr_misses::total               45                       # number of overall MSHR misses
system.l2.ReadExReq_mshr_miss_latency::cpu0.data      1984500                       # number of ReadExReq MSHR miss cycles
system.l2.ReadExReq_mshr_miss_latency::total      1984500                       # number of ReadExReq MSHR miss cycles
system.l2.ReadCleanReq_mshr_miss_latency::cpu0.inst      4043000                       # number of ReadCleanReq MSHR miss cycles
system.l2.ReadCleanReq_mshr_miss_latency::total      4043000                       # number of ReadCleanReq MSHR miss cycles
system.l2.ReadSharedReq_mshr_miss_latency::cpu0.data     12004500                       # number of ReadSharedReq MSHR miss cycles
system.l2.ReadSharedReq_mshr_miss_latency::total     12004500                       # number of ReadSharedReq MSHR miss cycles
system.l2.demand_mshr_miss_latency::cpu0.inst      4043000                       # number of demand (read+write) MSHR miss cycles
system.l2.demand_mshr_miss_latency::cpu0.data     13989000                       # number of demand (read+write) MSHR miss cycles
system.l2.demand_mshr_miss_latency::total     18032000                       # number of demand (read+write) MSHR miss cycles
system.l2.overall_mshr_miss_latency::cpu0.inst      4043000                       # number of overall MSHR miss cycles
system.l2.overall_mshr_miss_latency::cpu0.data     13989000                       # number of overall MSHR miss cycles
system.l2.overall_mshr_miss_latency::total     18032000                       # number of overall MSHR miss cycles
system.l2.ReadExReq_mshr_miss_rate::cpu0.data     0.000007                       # mshr miss rate for ReadExReq accesses
system.l2.ReadExReq_mshr_miss_rate::total     0.000007                       # mshr miss rate for ReadExReq accesses
system.l2.ReadCleanReq_mshr_miss_rate::cpu0.inst     0.004003                       # mshr miss rate for ReadCleanReq accesses
system.l2.ReadCleanReq_mshr_miss_rate::total     0.004003                       # mshr miss rate for ReadCleanReq accesses
system.l2.ReadSharedReq_mshr_miss_rate::cpu0.data     0.004013                       # mshr miss rate for ReadSharedReq accesses
system.l2.ReadSharedReq_mshr_miss_rate::total     0.004013                       # mshr miss rate for ReadSharedReq accesses
system.l2.demand_mshr_miss_rate::cpu0.inst     0.004003                       # mshr miss rate for demand accesses
system.l2.demand_mshr_miss_rate::cpu0.data     0.000045                       # mshr miss rate for demand accesses
system.l2.demand_mshr_miss_rate::total       0.000061                       # mshr miss rate for demand accesses
system.l2.overall_mshr_miss_rate::cpu0.inst     0.004003                       # mshr miss rate for overall accesses
system.l2.overall_mshr_miss_rate::cpu0.data     0.000045                       # mshr miss rate for overall accesses
system.l2.overall_mshr_miss_rate::total      0.000061                       # mshr miss rate for overall accesses
system.l2.ReadExReq_avg_mshr_miss_latency::cpu0.data       396900                       # average ReadExReq mshr miss latency
system.l2.ReadExReq_avg_mshr_miss_latency::total       396900                       # average ReadExReq mshr miss latency
system.l2.ReadCleanReq_avg_mshr_miss_latency::cpu0.inst 336916.666667                       # average ReadCleanReq mshr miss latency
system.l2.ReadCleanReq_avg_mshr_miss_latency::total 336916.666667                       # average ReadCleanReq mshr miss latency
system.l2.ReadSharedReq_avg_mshr_miss_latency::cpu0.data 428732.142857                       # average ReadSharedReq mshr miss latency
system.l2.ReadSharedReq_avg_mshr_miss_latency::total 428732.142857                       # average ReadSharedReq mshr miss latency
system.l2.demand_avg_mshr_miss_latency::cpu0.inst 336916.666667                       # average overall mshr miss latency
system.l2.demand_avg_mshr_miss_latency::cpu0.data 423909.090909                       # average overall mshr miss latency
system.l2.demand_avg_mshr_miss_latency::total 400711.111111                       # average overall mshr miss latency
system.l2.overall_avg_mshr_miss_latency::cpu0.inst 336916.666667                       # average overall mshr miss latency
system.l2.overall_avg_mshr_miss_latency::cpu0.data 423909.090909                       # average overall mshr miss latency
system.l2.overall_avg_mshr_miss_latency::total 400711.111111                       # average overall mshr miss latency
system.membus.snoop_filter.tot_requests           104                       # Total number of requests made to the snoop filter.
system.membus.snoop_filter.hit_single_requests           59                       # Number of requests hitting in the snoop filter with a single holder of the requested data.
system.membus.snoop_filter.hit_multi_requests            0                       # Number of requests hitting in the snoop filter with multiple (>1) holders of the requested data.
system.membus.snoop_filter.tot_snoops               0                       # Total number of snoops made to the snoop filter.
system.membus.snoop_filter.hit_single_snoops            0                       # Number of snoops hitting in the snoop filter with a single holder of the requested data.
system.membus.snoop_filter.hit_multi_snoops            0                       # Number of snoops hitting in the snoop filter with multiple (>1) holders of the requested data.
system.membus.pwrStateResidencyTicks::UNDEFINED  15267344125                       # Cumulative time (in ticks) in various power states
system.membus.trans_dist::ReadResp                 40                       # Transaction distribution
system.membus.trans_dist::WritebackDirty            4                       # Transaction distribution
system.membus.trans_dist::CleanEvict               55                       # Transaction distribution
system.membus.trans_dist::ReadExReq                 5                       # Transaction distribution
system.membus.trans_dist::ReadExResp                5                       # Transaction distribution
system.membus.trans_dist::ReadSharedReq            40                       # Transaction distribution
system.membus.pkt_count_system.l2.mem_side::system.mem_ctrls.port          149                       # Packet count per connected master and slave (bytes)
system.membus.pkt_count_system.l2.mem_side::total          149                       # Packet count per connected master and slave (bytes)
system.membus.pkt_count::total                    149                       # Packet count per connected master and slave (bytes)
system.membus.pkt_size_system.l2.mem_side::system.mem_ctrls.port         3136                       # Cumulative packet size per connected master and slave (bytes)
system.membus.pkt_size_system.l2.mem_side::total         3136                       # Cumulative packet size per connected master and slave (bytes)
system.membus.pkt_size::total                    3136                       # Cumulative packet size per connected master and slave (bytes)
system.membus.snoops                                0                       # Total snoops (count)
system.membus.snoopTraffic                          0                       # Total snoop traffic (bytes)
system.membus.snoop_fanout::samples                45                       # Request fanout histogram
system.membus.snoop_fanout::mean                    0                       # Request fanout histogram
system.membus.snoop_fanout::stdev                   0                       # Request fanout histogram
system.membus.snoop_fanout::underflows              0      0.00%      0.00% # Request fanout histogram
system.membus.snoop_fanout::0                      45    100.00%    100.00% # Request fanout histogram
system.membus.snoop_fanout::1                       0      0.00%    100.00% # Request fanout histogram
system.membus.snoop_fanout::overflows               0      0.00%    100.00% # Request fanout histogram
system.membus.snoop_fanout::min_value               0                       # Request fanout histogram
system.membus.snoop_fanout::max_value               0                       # Request fanout histogram
system.membus.snoop_fanout::total                  45                       # Request fanout histogram
system.membus.reqLayer8.occupancy              131000                       # Layer occupancy (ticks)
system.membus.reqLayer8.utilization               0.0                       # Layer utilization (%)
system.membus.respLayer1.occupancy             242000                       # Layer occupancy (ticks)
system.membus.respLayer1.utilization              0.0                       # Layer utilization (%)
system.tol2bus.snoop_filter.tot_requests      1468971                       # Total number of requests made to the snoop filter.
system.tol2bus.snoop_filter.hit_single_requests       734497                       # Number of requests hitting in the snoop filter with a single holder of the requested data.
system.tol2bus.snoop_filter.hit_multi_requests          352                       # Number of requests hitting in the snoop filter with multiple (>1) holders of the requested data.
system.tol2bus.snoop_filter.tot_snoops              0                       # Total number of snoops made to the snoop filter.
system.tol2bus.snoop_filter.hit_single_snoops            0                       # Number of snoops hitting in the snoop filter with a single holder of the requested data.
system.tol2bus.snoop_filter.hit_multi_snoops            0                       # Number of snoops hitting in the snoop filter with multiple (>1) holders of the requested data.
system.tol2bus.pwrStateResidencyTicks::UNDEFINED  15267344125                       # Cumulative time (in ticks) in various power states
system.tol2bus.trans_dist::ReadResp              9979                       # Transaction distribution
system.tol2bus.trans_dist::WritebackDirty       727068                       # Transaction distribution
system.tol2bus.trans_dist::WritebackClean         2999                       # Transaction distribution
system.tol2bus.trans_dist::CleanEvict            4475                       # Transaction distribution
system.tol2bus.trans_dist::UpgradeReq               3                       # Transaction distribution
system.tol2bus.trans_dist::UpgradeResp              3                       # Transaction distribution
system.tol2bus.trans_dist::ReadExReq           724506                       # Transaction distribution
system.tol2bus.trans_dist::ReadExResp          724506                       # Transaction distribution
system.tol2bus.trans_dist::ReadCleanReq          3001                       # Transaction distribution
system.tol2bus.trans_dist::ReadSharedReq         6978                       # Transaction distribution
system.tol2bus.pkt_count_system.cpu0.icache.mem_side::system.l2.cpu_side         8998                       # Packet count per connected master and slave (bytes)
system.tol2bus.pkt_count_system.cpu0.dcache.mem_side::system.l2.cpu_side      2194458                       # Packet count per connected master and slave (bytes)
system.tol2bus.pkt_count::total               2203456                       # Packet count per connected master and slave (bytes)
system.tol2bus.pkt_size_system.cpu0.icache.mem_side::system.l2.cpu_side       383808                       # Cumulative packet size per connected master and slave (bytes)
system.tol2bus.pkt_size_system.cpu0.dcache.mem_side::system.l2.cpu_side     93347072                       # Cumulative packet size per connected master and slave (bytes)
system.tol2bus.pkt_size::total               93730880                       # Cumulative packet size per connected master and slave (bytes)
system.tol2bus.snoops                              62                       # Total snoops (count)
system.tol2bus.snoopTraffic                       448                       # Total snoop traffic (bytes)
system.tol2bus.snoop_fanout::samples           734547                       # Request fanout histogram
system.tol2bus.snoop_fanout::mean            0.000496                       # Request fanout histogram
system.tol2bus.snoop_fanout::stdev           0.022255                       # Request fanout histogram
system.tol2bus.snoop_fanout::underflows             0      0.00%      0.00% # Request fanout histogram
system.tol2bus.snoop_fanout::0                 734183     99.95%     99.95% # Request fanout histogram
system.tol2bus.snoop_fanout::1                    364      0.05%    100.00% # Request fanout histogram
system.tol2bus.snoop_fanout::2                      0      0.00%    100.00% # Request fanout histogram
system.tol2bus.snoop_fanout::3                      0      0.00%    100.00% # Request fanout histogram
system.tol2bus.snoop_fanout::4                      0      0.00%    100.00% # Request fanout histogram
system.tol2bus.snoop_fanout::5                      0      0.00%    100.00% # Request fanout histogram
system.tol2bus.snoop_fanout::6                      0      0.00%    100.00% # Request fanout histogram
system.tol2bus.snoop_fanout::7                      0      0.00%    100.00% # Request fanout histogram
system.tol2bus.snoop_fanout::8                      0      0.00%    100.00% # Request fanout histogram
system.tol2bus.snoop_fanout::9                      0      0.00%    100.00% # Request fanout histogram
system.tol2bus.snoop_fanout::10                     0      0.00%    100.00% # Request fanout histogram
system.tol2bus.snoop_fanout::11                     0      0.00%    100.00% # Request fanout histogram
system.tol2bus.snoop_fanout::12                     0      0.00%    100.00% # Request fanout histogram
system.tol2bus.snoop_fanout::13                     0      0.00%    100.00% # Request fanout histogram
system.tol2bus.snoop_fanout::14                     0      0.00%    100.00% # Request fanout histogram
system.tol2bus.snoop_fanout::15                     0      0.00%    100.00% # Request fanout histogram
system.tol2bus.snoop_fanout::16                     0      0.00%    100.00% # Request fanout histogram
system.tol2bus.snoop_fanout::overflows              0      0.00%    100.00% # Request fanout histogram
system.tol2bus.snoop_fanout::min_value              0                       # Request fanout histogram
system.tol2bus.snoop_fanout::max_value              1                       # Request fanout histogram
system.tol2bus.snoop_fanout::total             734547                       # Request fanout histogram
system.tol2bus.reqLayer0.occupancy         1464548500                       # Layer occupancy (ticks)
system.tol2bus.reqLayer0.utilization              9.6                       # Layer utilization (%)
system.tol2bus.respLayer0.occupancy           4522957                       # Layer occupancy (ticks)
system.tol2bus.respLayer0.utilization             0.0                       # Layer utilization (%)
system.tol2bus.respLayer1.occupancy        1097227500                       # Layer occupancy (ticks)
system.tol2bus.respLayer1.utilization             7.2                       # Layer utilization (%)

---------- End Simulation Statistics   ----------
