
---------- Begin Simulation Statistics ----------
sim_seconds                                  0.015267                       # Number of seconds simulated
sim_ticks                                 15267344125                       # Number of ticks simulated
final_tick                               6015333585250                       # Number of ticks from beginning of simulation (restored from checkpoints and never reset)
sim_freq                                 1000000000000                       # Frequency of simulated ticks
host_inst_rate                              128308189                       # Simulator instruction rate (inst/s)
host_op_rate                                238823576                       # Simulator op (including micro ops) rate (op/s)
host_tick_rate                              330860523                       # Simulator tick rate (ticks/s)
host_mem_usage                                2332536                       # Number of bytes of host memory used
host_seconds                                    46.14                       # Real time elapsed on the host
sim_insts                                  5920695775                       # Number of instructions simulated
sim_ops                                   11020356954                       # Number of ops (including micro ops) simulated
system.voltage_domain.voltage                       1                       # Voltage in Volts
system.clk_domain.clock                          1000                       # Clock period in ticks
system.mem_ctrls.pwrStateResidencyTicks::UNDEFINED  15267344125                       # Cumulative time (in ticks) in various power states
system.mem_ctrls.bytes_read::cpu0.inst             64                       # Number of bytes read from this memory
system.mem_ctrls.bytes_read::cpu0.data       12148480                       # Number of bytes read from this memory
system.mem_ctrls.bytes_read::total           12148544                       # Number of bytes read from this memory
system.mem_ctrls.bytes_inst_read::cpu0.inst           64                       # Number of instructions bytes read from this memory
system.mem_ctrls.bytes_inst_read::total            64                       # Number of instructions bytes read from this memory
system.mem_ctrls.bytes_written::writebacks        23040                       # Number of bytes written to this memory
system.mem_ctrls.bytes_written::total           23040                       # Number of bytes written to this memory
system.mem_ctrls.num_reads::cpu0.inst               1                       # Number of read requests responded to by this memory
system.mem_ctrls.num_reads::cpu0.data          189820                       # Number of read requests responded to by this memory
system.mem_ctrls.num_reads::total              189821                       # Number of read requests responded to by this memory
system.mem_ctrls.num_writes::writebacks           360                       # Number of write requests responded to by this memory
system.mem_ctrls.num_writes::total                360                       # Number of write requests responded to by this memory
system.mem_ctrls.bw_read::cpu0.inst              4192                       # Total read bandwidth from this memory (bytes/s)
system.mem_ctrls.bw_read::cpu0.data         795716655                       # Total read bandwidth from this memory (bytes/s)
system.mem_ctrls.bw_read::total             795720847                       # Total read bandwidth from this memory (bytes/s)
system.mem_ctrls.bw_inst_read::cpu0.inst         4192                       # Instruction read bandwidth from this memory (bytes/s)
system.mem_ctrls.bw_inst_read::total             4192                       # Instruction read bandwidth from this memory (bytes/s)
system.mem_ctrls.bw_write::writebacks         1509103                       # Write bandwidth from this memory (bytes/s)
system.mem_ctrls.bw_write::total              1509103                       # Write bandwidth from this memory (bytes/s)
system.mem_ctrls.bw_total::writebacks         1509103                       # Total bandwidth to/from this memory (bytes/s)
system.mem_ctrls.bw_total::cpu0.inst             4192                       # Total bandwidth to/from this memory (bytes/s)
system.mem_ctrls.bw_total::cpu0.data        795716655                       # Total bandwidth to/from this memory (bytes/s)
system.mem_ctrls.bw_total::total            797229950                       # Total bandwidth to/from this memory (bytes/s)
system.mem_ctrls.readReqs                      189819                       # Number of read requests accepted
system.mem_ctrls.writeReqs                        360                       # Number of write requests accepted
system.mem_ctrls.readBursts                    189819                       # Number of DRAM read bursts, including those serviced by the write queue
system.mem_ctrls.writeBursts                      360                       # Number of DRAM write bursts, including those merged in the write queue
system.mem_ctrls.bytesReadDRAM               12145920                       # Total number of bytes read from DRAM
system.mem_ctrls.bytesReadWrQ                    2496                       # Total number of bytes read from write queue
system.mem_ctrls.bytesWritten                   23552                       # Total number of bytes written to DRAM
system.mem_ctrls.bytesReadSys                12148416                       # Total read bytes from the system interface side
system.mem_ctrls.bytesWrittenSys                23040                       # Total written bytes from the system interface side
system.mem_ctrls.servicedByWrQ                     39                       # Number of DRAM read bursts serviced by the write queue
system.mem_ctrls.mergedWrBursts                     0                       # Number of DRAM write bursts merged with an existing one
system.mem_ctrls.neitherReadNorWriteReqs            0                       # Number of requests that are neither read nor write
system.mem_ctrls.perBankRdBursts::0             11800                       # Per bank write bursts
system.mem_ctrls.perBankRdBursts::1             11831                       # Per bank write bursts
system.mem_ctrls.perBankRdBursts::2             11853                       # Per bank write bursts
system.mem_ctrls.perBankRdBursts::3             12063                       # Per bank write bursts
system.mem_ctrls.perBankRdBursts::4             12351                       # Per bank write bursts
system.mem_ctrls.perBankRdBursts::5             11971                       # Per bank write bursts
system.mem_ctrls.perBankRdBursts::6             11906                       # Per bank write bursts
system.mem_ctrls.perBankRdBursts::7             11855                       # Per bank write bursts
system.mem_ctrls.perBankRdBursts::8             11869                       # Per bank write bursts
system.mem_ctrls.perBankRdBursts::9             11796                       # Per bank write bursts
system.mem_ctrls.perBankRdBursts::10            11776                       # Per bank write bursts
system.mem_ctrls.perBankRdBursts::11            11814                       # Per bank write bursts
system.mem_ctrls.perBankRdBursts::12            11855                       # Per bank write bursts
system.mem_ctrls.perBankRdBursts::13            11780                       # Per bank write bursts
system.mem_ctrls.perBankRdBursts::14            11626                       # Per bank write bursts
system.mem_ctrls.perBankRdBursts::15            11634                       # Per bank write bursts
system.mem_ctrls.perBankWrBursts::0                 1                       # Per bank write bursts
system.mem_ctrls.perBankWrBursts::1                12                       # Per bank write bursts
system.mem_ctrls.perBankWrBursts::2               107                       # Per bank write bursts
system.mem_ctrls.perBankWrBursts::3               202                       # Per bank write bursts
system.mem_ctrls.perBankWrBursts::4                10                       # Per bank write bursts
system.mem_ctrls.perBankWrBursts::5                10                       # Per bank write bursts
system.mem_ctrls.perBankWrBursts::6                 0                       # Per bank write bursts
system.mem_ctrls.perBankWrBursts::7                 0                       # Per bank write bursts
system.mem_ctrls.perBankWrBursts::8                23                       # Per bank write bursts
system.mem_ctrls.perBankWrBursts::9                 0                       # Per bank write bursts
system.mem_ctrls.perBankWrBursts::10                0                       # Per bank write bursts
system.mem_ctrls.perBankWrBursts::11                0                       # Per bank write bursts
system.mem_ctrls.perBankWrBursts::12                3                       # Per bank write bursts
system.mem_ctrls.perBankWrBursts::13                0                       # Per bank write bursts
system.mem_ctrls.perBankWrBursts::14                0                       # Per bank write bursts
system.mem_ctrls.perBankWrBursts::15                0                       # Per bank write bursts
system.mem_ctrls.numRdRetry                         0                       # Number of times read queue was full causing retry
system.mem_ctrls.numWrRetry                         0                       # Number of times write queue was full causing retry
system.mem_ctrls.totGap                   15267335500                       # Total gap between requests
system.mem_ctrls.readPktSize::0                     0                       # Read request sizes (log2)
system.mem_ctrls.readPktSize::1                     0                       # Read request sizes (log2)
system.mem_ctrls.readPktSize::2                     0                       # Read request sizes (log2)
system.mem_ctrls.readPktSize::3                     0                       # Read request sizes (log2)
system.mem_ctrls.readPktSize::4                     0                       # Read request sizes (log2)
system.mem_ctrls.readPktSize::5                     0                       # Read request sizes (log2)
system.mem_ctrls.readPktSize::6                189819                       # Read request sizes (log2)
system.mem_ctrls.writePktSize::0                    0                       # Write request sizes (log2)
system.mem_ctrls.writePktSize::1                    0                       # Write request sizes (log2)
system.mem_ctrls.writePktSize::2                    0                       # Write request sizes (log2)
system.mem_ctrls.writePktSize::3                    0                       # Write request sizes (log2)
system.mem_ctrls.writePktSize::4                    0                       # Write request sizes (log2)
system.mem_ctrls.writePktSize::5                    0                       # Write request sizes (log2)
system.mem_ctrls.writePktSize::6                  360                       # Write request sizes (log2)
system.mem_ctrls.rdQLenPdf::0                  144456                       # What read queue length does an incoming req see
system.mem_ctrls.rdQLenPdf::1                   42454                       # What read queue length does an incoming req see
system.mem_ctrls.rdQLenPdf::2                    2796                       # What read queue length does an incoming req see
system.mem_ctrls.rdQLenPdf::3                      73                       # What read queue length does an incoming req see
system.mem_ctrls.rdQLenPdf::4                       1                       # What read queue length does an incoming req see
system.mem_ctrls.rdQLenPdf::5                       0                       # What read queue length does an incoming req see
system.mem_ctrls.rdQLenPdf::6                       0                       # What read queue length does an incoming req see
system.mem_ctrls.rdQLenPdf::7                       0                       # What read queue length does an incoming req see
system.mem_ctrls.rdQLenPdf::8                       0                       # What read queue length does an incoming req see
system.mem_ctrls.rdQLenPdf::9                       0                       # What read queue length does an incoming req see
system.mem_ctrls.rdQLenPdf::10                      0                       # What read queue length does an incoming req see
system.mem_ctrls.rdQLenPdf::11                      0                       # What read queue length does an incoming req see
system.mem_ctrls.rdQLenPdf::12                      0                       # What read queue length does an incoming req see
system.mem_ctrls.rdQLenPdf::13                      0                       # What read queue length does an incoming req see
system.mem_ctrls.rdQLenPdf::14                      0                       # What read queue length does an incoming req see
system.mem_ctrls.rdQLenPdf::15                      0                       # What read queue length does an incoming req see
system.mem_ctrls.rdQLenPdf::16                      0                       # What read queue length does an incoming req see
system.mem_ctrls.rdQLenPdf::17                      0                       # What read queue length does an incoming req see
system.mem_ctrls.rdQLenPdf::18                      0                       # What read queue length does an incoming req see
system.mem_ctrls.rdQLenPdf::19                      0                       # What read queue length does an incoming req see
system.mem_ctrls.rdQLenPdf::20                      0                       # What read queue length does an incoming req see
system.mem_ctrls.rdQLenPdf::21                      0                       # What read queue length does an incoming req see
system.mem_ctrls.rdQLenPdf::22                      0                       # What read queue length does an incoming req see
system.mem_ctrls.rdQLenPdf::23                      0                       # What read queue length does an incoming req see
system.mem_ctrls.rdQLenPdf::24                      0                       # What read queue length does an incoming req see
system.mem_ctrls.rdQLenPdf::25                      0                       # What read queue length does an incoming req see
system.mem_ctrls.rdQLenPdf::26                      0                       # What read queue length does an incoming req see
system.mem_ctrls.rdQLenPdf::27                      0                       # What read queue length does an incoming req see
system.mem_ctrls.rdQLenPdf::28                      0                       # What read queue length does an incoming req see
system.mem_ctrls.rdQLenPdf::29                      0                       # What read queue length does an incoming req see
system.mem_ctrls.rdQLenPdf::30                      0                       # What read queue length does an incoming req see
system.mem_ctrls.rdQLenPdf::31                      0                       # What read queue length does an incoming req see
system.mem_ctrls.wrQLenPdf::0                       0                       # What write queue length does an incoming req see
system.mem_ctrls.wrQLenPdf::1                       0                       # What write queue length does an incoming req see
system.mem_ctrls.wrQLenPdf::2                       0                       # What write queue length does an incoming req see
system.mem_ctrls.wrQLenPdf::3                       0                       # What write queue length does an incoming req see
system.mem_ctrls.wrQLenPdf::4                       0                       # What write queue length does an incoming req see
system.mem_ctrls.wrQLenPdf::5                       0                       # What write queue length does an incoming req see
system.mem_ctrls.wrQLenPdf::6                       0                       # What write queue length does an incoming req see
system.mem_ctrls.wrQLenPdf::7                       0                       # What write queue length does an incoming req see
system.mem_ctrls.wrQLenPdf::8                       0                       # What write queue length does an incoming req see
system.mem_ctrls.wrQLenPdf::9                       0                       # What write queue length does an incoming req see
system.mem_ctrls.wrQLenPdf::10                      0                       # What write queue length does an incoming req see
system.mem_ctrls.wrQLenPdf::11                      0                       # What write queue length does an incoming req see
system.mem_ctrls.wrQLenPdf::12                      0                       # What write queue length does an incoming req see
system.mem_ctrls.wrQLenPdf::13                      0                       # What write queue length does an incoming req see
system.mem_ctrls.wrQLenPdf::14                      0                       # What write queue length does an incoming req see
system.mem_ctrls.wrQLenPdf::15                      0                       # What write queue length does an incoming req see
system.mem_ctrls.wrQLenPdf::16                      0                       # What write queue length does an incoming req see
system.mem_ctrls.wrQLenPdf::17                     23                       # What write queue length does an incoming req see
system.mem_ctrls.wrQLenPdf::18                     23                       # What write queue length does an incoming req see
system.mem_ctrls.wrQLenPdf::19                     23                       # What write queue length does an incoming req see
system.mem_ctrls.wrQLenPdf::20                     23                       # What write queue length does an incoming req see
system.mem_ctrls.wrQLenPdf::21                     23                       # What write queue length does an incoming req see
system.mem_ctrls.wrQLenPdf::22                     23                       # What write queue length does an incoming req see
system.mem_ctrls.wrQLenPdf::23                     23                       # What write queue length does an incoming req see
system.mem_ctrls.wrQLenPdf::24                     22                       # What write queue length does an incoming req see
system.mem_ctrls.wrQLenPdf::25                     22                       # What write queue length does an incoming req see
system.mem_ctrls.wrQLenPdf::26                     22                       # What write queue length does an incoming req see
system.mem_ctrls.wrQLenPdf::27                     22                       # What write queue length does an incoming req see
system.mem_ctrls.wrQLenPdf::28                     22                       # What write queue length does an incoming req see
system.mem_ctrls.wrQLenPdf::29                     22                       # What write queue length does an incoming req see
system.mem_ctrls.wrQLenPdf::30                     22                       # What write queue length does an incoming req see
system.mem_ctrls.wrQLenPdf::31                     22                       # What write queue length does an incoming req see
system.mem_ctrls.wrQLenPdf::32                     23                       # What write queue length does an incoming req see
system.mem_ctrls.wrQLenPdf::33                      0                       # What write queue length does an incoming req see
system.mem_ctrls.wrQLenPdf::34                      0                       # What write queue length does an incoming req see
system.mem_ctrls.wrQLenPdf::35                      0                       # What write queue length does an incoming req see
system.mem_ctrls.wrQLenPdf::36                      0                       # What write queue length does an incoming req see
system.mem_ctrls.wrQLenPdf::37                      0                       # What write queue length does an incoming req see
system.mem_ctrls.wrQLenPdf::38                      0                       # What write queue length does an incoming req see
system.mem_ctrls.wrQLenPdf::39                      0                       # What write queue length does an incoming req see
system.mem_ctrls.wrQLenPdf::40                      0                       # What write queue length does an incoming req see
system.mem_ctrls.wrQLenPdf::41                      0                       # What write queue length does an incoming req see
system.mem_ctrls.wrQLenPdf::42                      0                       # What write queue length does an incoming req see
system.mem_ctrls.wrQLenPdf::43                      0                       # What write queue length does an incoming req see
system.mem_ctrls.wrQLenPdf::44                      0                       # What write queue length does an incoming req see
system.mem_ctrls.wrQLenPdf::45                      0                       # What write queue length does an incoming req see
system.mem_ctrls.wrQLenPdf::46                      0                       # What write queue length does an incoming req see
system.mem_ctrls.wrQLenPdf::47                      0                       # What write queue length does an incoming req see
system.mem_ctrls.wrQLenPdf::48                      0                       # What write queue length does an incoming req see
system.mem_ctrls.wrQLenPdf::49                      0                       # What write queue length does an incoming req see
system.mem_ctrls.wrQLenPdf::50                      0                       # What write queue length does an incoming req see
system.mem_ctrls.wrQLenPdf::51                      0                       # What write queue length does an incoming req see
system.mem_ctrls.wrQLenPdf::52                      0                       # What write queue length does an incoming req see
system.mem_ctrls.wrQLenPdf::53                      0                       # What write queue length does an incoming req see
system.mem_ctrls.wrQLenPdf::54                      0                       # What write queue length does an incoming req see
system.mem_ctrls.wrQLenPdf::55                      0                       # What write queue length does an incoming req see
system.mem_ctrls.wrQLenPdf::56                      0                       # What write queue length does an incoming req see
system.mem_ctrls.wrQLenPdf::57                      0                       # What write queue length does an incoming req see
system.mem_ctrls.wrQLenPdf::58                      0                       # What write queue length does an incoming req see
system.mem_ctrls.wrQLenPdf::59                      0                       # What write queue length does an incoming req see
system.mem_ctrls.wrQLenPdf::60                      0                       # What write queue length does an incoming req see
system.mem_ctrls.wrQLenPdf::61                      0                       # What write queue length does an incoming req see
system.mem_ctrls.wrQLenPdf::62                      0                       # What write queue length does an incoming req see
system.mem_ctrls.wrQLenPdf::63                      0                       # What write queue length does an incoming req see
system.mem_ctrls.bytesPerActivate::samples        97238                       # Bytes accessed per row activation
system.mem_ctrls.bytesPerActivate::mean    125.151402                       # Bytes accessed per row activation
system.mem_ctrls.bytesPerActivate::gmean   107.761645                       # Bytes accessed per row activation
system.mem_ctrls.bytesPerActivate::stdev    74.999625                       # Bytes accessed per row activation
system.mem_ctrls.bytesPerActivate::0-127        43910     45.16%     45.16% # Bytes accessed per row activation
system.mem_ctrls.bytesPerActivate::128-255        43323     44.55%     89.71% # Bytes accessed per row activation
system.mem_ctrls.bytesPerActivate::256-383         8684      8.93%     98.64% # Bytes accessed per row activation
system.mem_ctrls.bytesPerActivate::384-511         1171      1.20%     99.85% # Bytes accessed per row activation
system.mem_ctrls.bytesPerActivate::512-639          126      0.13%     99.98% # Bytes accessed per row activation
system.mem_ctrls.bytesPerActivate::640-767           11      0.01%     99.99% # Bytes accessed per row activation
system.mem_ctrls.bytesPerActivate::768-895            2      0.00%     99.99% # Bytes accessed per row activation
system.mem_ctrls.bytesPerActivate::896-1023            4      0.00%     99.99% # Bytes accessed per row activation
system.mem_ctrls.bytesPerActivate::1024-1151            7      0.01%    100.00% # Bytes accessed per row activation
system.mem_ctrls.bytesPerActivate::total        97238                       # Bytes accessed per row activation
system.mem_ctrls.rdPerTurnAround::samples           23                       # Reads before turning the bus around for writes
system.mem_ctrls.rdPerTurnAround::mean    8171.782609                       # Reads before turning the bus around for writes
system.mem_ctrls.rdPerTurnAround::gmean   7935.299487                       # Reads before turning the bus around for writes
system.mem_ctrls.rdPerTurnAround::stdev   1977.967436                       # Reads before turning the bus around for writes
system.mem_ctrls.rdPerTurnAround::4608-5119            2      8.70%      8.70% # Reads before turning the bus around for writes
system.mem_ctrls.rdPerTurnAround::5120-5631            1      4.35%     13.04% # Reads before turning the bus around for writes
system.mem_ctrls.rdPerTurnAround::5632-6143            1      4.35%     17.39% # Reads before turning the bus around for writes
system.mem_ctrls.rdPerTurnAround::6144-6655            1      4.35%     21.74% # Reads before turning the bus around for writes
system.mem_ctrls.rdPerTurnAround::7168-7679            5     21.74%     43.48% # Reads before turning the bus around for writes
system.mem_ctrls.rdPerTurnAround::7680-8191            1      4.35%     47.83% # Reads before turning the bus around for writes
system.mem_ctrls.rdPerTurnAround::8192-8703            5     21.74%     69.57% # Reads before turning the bus around for writes
system.mem_ctrls.rdPerTurnAround::8704-9215            2      8.70%     78.26% # Reads before turning the bus around for writes
system.mem_ctrls.rdPerTurnAround::9216-9727            1      4.35%     82.61% # Reads before turning the bus around for writes
system.mem_ctrls.rdPerTurnAround::10240-10751            2      8.70%     91.30% # Reads before turning the bus around for writes
system.mem_ctrls.rdPerTurnAround::11264-11775            1      4.35%     95.65% # Reads before turning the bus around for writes
system.mem_ctrls.rdPerTurnAround::12288-12799            1      4.35%    100.00% # Reads before turning the bus around for writes
system.mem_ctrls.rdPerTurnAround::total            23                       # Reads before turning the bus around for writes
system.mem_ctrls.wrPerTurnAround::samples           23                       # Writes before turning the bus around for reads
system.mem_ctrls.wrPerTurnAround::mean             16                       # Writes before turning the bus around for reads
system.mem_ctrls.wrPerTurnAround::gmean     16.000000                       # Writes before turning the bus around for reads
system.mem_ctrls.wrPerTurnAround::16               23    100.00%    100.00% # Writes before turning the bus around for reads
system.mem_ctrls.wrPerTurnAround::total            23                       # Writes before turning the bus around for reads
system.mem_ctrls.totQLat                   4660145000                       # Total ticks spent queuing
system.mem_ctrls.totMemAccLat              8218520000                       # Total ticks spent from burst creation until serviced by the DRAM
system.mem_ctrls.totBusLat                  948900000                       # Total ticks spent in databus transfers
system.mem_ctrls.avgQLat                     24555.51                       # Average queueing delay per DRAM burst
system.mem_ctrls.avgBusLat                    5000.00                       # Average bus latency per DRAM burst
system.mem_ctrls.avgMemAccLat                43305.51                       # Average memory access latency per DRAM burst
system.mem_ctrls.avgRdBW                       795.55                       # Average DRAM read bandwidth in MiByte/s
system.mem_ctrls.avgWrBW                         1.54                       # Average achieved write bandwidth in MiByte/s
system.mem_ctrls.avgRdBWSys                    795.71                       # Average system read bandwidth in MiByte/s
system.mem_ctrls.avgWrBWSys                      1.51                       # Average system write bandwidth in MiByte/s
system.mem_ctrls.peakBW                      12800.00                       # Theoretical peak bandwidth in MiByte/s
system.mem_ctrls.busUtil                         6.23                       # Data bus utilization in percentage
system.mem_ctrls.busUtilRead                     6.22                       # Data bus utilization in percentage for reads
system.mem_ctrls.busUtilWrite                    0.01                       # Data bus utilization in percentage for writes
system.mem_ctrls.avgRdQLen                       1.31                       # Average read queue length when enqueuing
system.mem_ctrls.avgWrQLen                      25.76                       # Average write queue length when enqueuing
system.mem_ctrls.readRowHits                    92600                       # Number of row buffer hits during reads
system.mem_ctrls.writeRowHits                     309                       # Number of row buffer hits during writes
system.mem_ctrls.readRowHitRate                 48.79                       # Row buffer hit rate for reads
system.mem_ctrls.writeRowHitRate                85.83                       # Row buffer hit rate for writes
system.mem_ctrls.avgGap                      80278.77                       # Average gap between requests
system.mem_ctrls.pageHitRate                    48.86                       # Row buffer hit rate, read and write combined
system.mem_ctrls_0.actEnergy                349774320                       # Energy for activate commands per rank (pJ)
system.mem_ctrls_0.preEnergy                185905665                       # Energy for precharge commands per rank (pJ)
system.mem_ctrls_0.readEnergy               682798200                       # Energy for read commands per rank (pJ)
system.mem_ctrls_0.writeEnergy                1785240                       # Energy for write commands per rank (pJ)
system.mem_ctrls_0.refreshEnergy         1205309040.000000                       # Energy for refresh commands per rank (pJ)
system.mem_ctrls_0.actBackEnergy           1616952060                       # Energy for active background per rank (pJ)
system.mem_ctrls_0.preBackEnergy             24312000                       # Energy for precharge background per rank (pJ)
system.mem_ctrls_0.actPowerDownEnergy      5182117950                       # Energy for active power-down per rank (pJ)
system.mem_ctrls_0.prePowerDownEnergy       112815840                       # Energy for precharge power-down per rank (pJ)
system.mem_ctrls_0.selfRefreshEnergy                0                       # Energy for self refresh per rank (pJ)
system.mem_ctrls_0.totalEnergy             9361770315                       # Total energy per rank (pJ)
system.mem_ctrls_0.averagePower            613.189186                       # Core power per rank (mW)
system.mem_ctrls_0.totalIdleTime          11657533125                       # Total Idle time Per DRAM Rank
system.mem_ctrls_0.memoryStateTime::IDLE      9900000                       # Time in different power states
system.mem_ctrls_0.memoryStateTime::REF     509860000                       # Time in different power states
system.mem_ctrls_0.memoryStateTime::SREF            0                       # Time in different power states
system.mem_ctrls_0.memoryStateTime::PRE_PDN    294166000                       # Time in different power states
system.mem_ctrls_0.memoryStateTime::ACT    3090051000                       # Time in different power states
system.mem_ctrls_0.memoryStateTime::ACT_PDN  11363367125                       # Time in different power states
system.mem_ctrls_1.actEnergy                344519280                       # Energy for activate commands per rank (pJ)
system.mem_ctrls_1.preEnergy                183112545                       # Energy for precharge commands per rank (pJ)
system.mem_ctrls_1.readEnergy               672245280                       # Energy for read commands per rank (pJ)
system.mem_ctrls_1.writeEnergy                 135720                       # Energy for write commands per rank (pJ)
system.mem_ctrls_1.refreshEnergy         1205309040.000000                       # Energy for refresh commands per rank (pJ)
system.mem_ctrls_1.actBackEnergy           1596709650                       # Energy for active background per rank (pJ)
system.mem_ctrls_1.preBackEnergy             24644640                       # Energy for precharge background per rank (pJ)
system.mem_ctrls_1.actPowerDownEnergy      5198139510                       # Energy for active power-down per rank (pJ)
system.mem_ctrls_1.prePowerDownEnergy       116037600                       # Energy for precharge power-down per rank (pJ)
system.mem_ctrls_1.selfRefreshEnergy                0                       # Energy for self refresh per rank (pJ)
system.mem_ctrls_1.totalEnergy             9340853265                       # Total energy per rank (pJ)
system.mem_ctrls_1.averagePower            611.819134                       # Core power per rank (mW)
system.mem_ctrls_1.totalIdleTime          11701345750                       # Total Idle time Per DRAM Rank
system.mem_ctrls_1.memoryStateTime::IDLE      9816000                       # Time in different power states
system.mem_ctrls_1.memoryStateTime::REF     509860000                       # Time in different power states
system.mem_ctrls_1.memoryStateTime::SREF            0                       # Time in different power states
system.mem_ctrls_1.memoryStateTime::PRE_PDN    302376500                       # Time in different power states
system.mem_ctrls_1.memoryStateTime::ACT    3045394375                       # Time in different power states
system.mem_ctrls_1.memoryStateTime::ACT_PDN  11399897250                       # Time in different power states
system.pwrStateResidencyTicks::UNDEFINED  15267344125                       # Cumulative time (in ticks) in various power states
system.cpu0.branchPred.lookups                1623267                       # Number of BP lookups
system.cpu0.branchPred.condPredicted          1623267                       # Number of conditional branches predicted
system.cpu0.branchPred.condIncorrect            59783                       # Number of conditional branches incorrect
system.cpu0.branchPred.BTBLookups             1202139                       # Number of BTB lookups
system.cpu0.branchPred.BTBHits                      0                       # Number of BTB hits
system.cpu0.branchPred.BTBCorrect                   0                       # Number of correct BTB predictions (this stat may not work properly.
system.cpu0.branchPred.BTBHitPct             0.000000                       # BTB Hit Percentage
system.cpu0.branchPred.usedRAS                  34410                       # Number of times the RAS was used to get a target.
system.cpu0.branchPred.RASInCorrect              5399                       # Number of incorrect RAS predictions.
system.cpu0.branchPred.indirectLookups        1202139                       # Number of indirect predictor lookups.
system.cpu0.branchPred.indirectHits            719934                       # Number of indirect target hits.
system.cpu0.branchPred.indirectMisses          482205                       # Number of indirect misses.
system.cpu0.branchPredindirectMispredicted        16994                       # Number of mispredicted indirect branches.
system.cpu_voltage_domain.voltage                   1                       # Voltage in Volts
system.cpu_clk_domain.clock                       500                       # Clock period in ticks
system.cpu0.dtb.walker.pwrStateResidencyTicks::UNDEFINED  15267344125                       # Cumulative time (in ticks) in various power states
system.cpu0.dtb.rdAccesses                     748255                       # TLB accesses on read requests
system.cpu0.dtb.wrAccesses                      43848                       # TLB accesses on write requests
system.cpu0.dtb.rdMisses                       161935                       # TLB misses on read requests
system.cpu0.dtb.wrMisses                          802                       # TLB misses on write requests
system.cpu0.apic_clk_domain.clock                8000                       # Clock period in ticks
system.cpu0.interrupts.pwrStateResidencyTicks::UNDEFINED  15267344125                       # Cumulative time (in ticks) in various power states
system.cpu0.itb.walker.pwrStateResidencyTicks::UNDEFINED  15267344125                       # Cumulative time (in ticks) in various power states
system.cpu0.itb.rdAccesses                          0                       # TLB accesses on read requests
system.cpu0.itb.wrAccesses                    1409567                       # TLB accesses on write requests
system.cpu0.itb.rdMisses                            0                       # TLB misses on read requests
system.cpu0.itb.wrMisses                         2888                       # TLB misses on write requests
system.cpu0.workload.numSyscalls                    1                       # Number of system calls
system.cpu0.pwrStateResidencyTicks::ON    15267344125                       # Cumulative time (in ticks) in various power states
system.cpu0.numCycles                        30534688                       # number of cpu cycles simulated
system.cpu0.numWorkItemsStarted                     0                       # number of work items this cpu started
system.cpu0.numWorkItemsCompleted                   0                       # number of work items this cpu completed
system.cpu0.fetch.icacheStallCycles           1435541                       # Number of cycles fetch is stalled on an Icache miss
system.cpu0.fetch.Insts                       4601652                       # Number of instructions fetch has processed
system.cpu0.fetch.Branches                    1623267                       # Number of branches that fetch encountered
system.cpu0.fetch.predictedBranches            754344                       # Number of branches that fetch has predicted taken
system.cpu0.fetch.Cycles                     28991873                       # Number of cycles fetch has run and was not squashing or blocked
system.cpu0.fetch.SquashCycles                 121568                       # Number of cycles fetch has spent squashing
system.cpu0.fetch.TlbCycles                       471                       # Number of cycles fetch has spent waiting for tlb
system.cpu0.fetch.MiscStallCycles                 769                       # Number of cycles fetch has spent waiting on interrupts, or bad addresses, or out of MSHRs
system.cpu0.fetch.PendingTrapStallCycles        22892                       # Number of stall cycles due to pending traps
system.cpu0.fetch.CacheLines                  1406679                       # Number of cache lines fetched
system.cpu0.fetch.IcacheSquashes                 6707                       # Number of outstanding Icache misses that were squashed
system.cpu0.fetch.ItlbSquashes                      2                       # Number of outstanding ITLB misses that were squashed
system.cpu0.fetch.rateDist::samples          30512330                       # Number of instructions fetched each cycle (Total)
system.cpu0.fetch.rateDist::mean             0.302277                       # Number of instructions fetched each cycle (Total)
system.cpu0.fetch.rateDist::stdev            1.379910                       # Number of instructions fetched each cycle (Total)
system.cpu0.fetch.rateDist::underflows              0      0.00%      0.00% # Number of instructions fetched each cycle (Total)
system.cpu0.fetch.rateDist::0                28685949     94.01%     94.01% # Number of instructions fetched each cycle (Total)
system.cpu0.fetch.rateDist::1                   22836      0.07%     94.09% # Number of instructions fetched each cycle (Total)
system.cpu0.fetch.rateDist::2                  716364      2.35%     96.44% # Number of instructions fetched each cycle (Total)
system.cpu0.fetch.rateDist::3                   20471      0.07%     96.50% # Number of instructions fetched each cycle (Total)
system.cpu0.fetch.rateDist::4                  126647      0.42%     96.92% # Number of instructions fetched each cycle (Total)
system.cpu0.fetch.rateDist::5                   45343      0.15%     97.07% # Number of instructions fetched each cycle (Total)
system.cpu0.fetch.rateDist::6                   83168      0.27%     97.34% # Number of instructions fetched each cycle (Total)
system.cpu0.fetch.rateDist::7                   18521      0.06%     97.40% # Number of instructions fetched each cycle (Total)
system.cpu0.fetch.rateDist::8                  793031      2.60%    100.00% # Number of instructions fetched each cycle (Total)
system.cpu0.fetch.rateDist::overflows               0      0.00%    100.00% # Number of instructions fetched each cycle (Total)
system.cpu0.fetch.rateDist::min_value               0                       # Number of instructions fetched each cycle (Total)
system.cpu0.fetch.rateDist::max_value               8                       # Number of instructions fetched each cycle (Total)
system.cpu0.fetch.rateDist::total            30512330                       # Number of instructions fetched each cycle (Total)
system.cpu0.fetch.branchRate                 0.053161                       # Number of branch fetches per cycle
system.cpu0.fetch.rate                       0.150702                       # Number of inst fetches per cycle
system.cpu0.decode.IdleCycles                  683681                       # Number of cycles decode is idle
system.cpu0.decode.BlockedCycles             28582715                       # Number of cycles decode is blocked
system.cpu0.decode.RunCycles                   862670                       # Number of cycles decode is running
system.cpu0.decode.UnblockCycles               322480                       # Number of cycles decode is unblocking
system.cpu0.decode.SquashCycles                 60784                       # Number of cycles decode is squashing
system.cpu0.decode.DecodedInsts               7624086                       # Number of instructions handled by decode
system.cpu0.rename.SquashCycles                 60784                       # Number of cycles rename is squashing
system.cpu0.rename.IdleCycles                  776079                       # Number of cycles rename is idle
system.cpu0.rename.BlockCycles               27354850                       # Number of cycles rename is blocking
system.cpu0.rename.serializeStallCycles          8410                       # count of cycles rename stalled for serializing inst
system.cpu0.rename.RunCycles                  1014009                       # Number of cycles rename is running
system.cpu0.rename.UnblockCycles              1298198                       # Number of cycles rename is unblocking
system.cpu0.rename.RenamedInsts               7343927                       # Number of instructions processed by rename
system.cpu0.rename.ROBFullEvents                43940                       # Number of times rename has blocked due to ROB full
system.cpu0.rename.IQFullEvents               1076988                       # Number of times rename has blocked due to IQ full
system.cpu0.rename.LQFullEvents                166461                       # Number of times rename has blocked due to LQ full
system.cpu0.rename.SQFullEvents                   735                       # Number of times rename has blocked due to SQ full
system.cpu0.rename.RenamedOperands            8768949                       # Number of destination operands rename has renamed
system.cpu0.rename.RenameLookups             20600595                       # Number of register rename lookups that rename has made
system.cpu0.rename.int_rename_lookups         9510503                       # Number of integer rename lookups
system.cpu0.rename.fp_rename_lookups            33815                       # Number of floating rename lookups
system.cpu0.rename.CommittedMaps              3247759                       # Number of HB maps that are committed
system.cpu0.rename.UndoneMaps                 5521203                       # Number of HB maps that are undone due to squashing
system.cpu0.rename.serializingInsts               242                       # count of serializing insts renamed
system.cpu0.rename.tempSerializingInsts           286                       # count of temporary serializing insts renamed
system.cpu0.rename.skidInsts                  2048043                       # count of insts added to the skid buffer
system.cpu0.memDep0.insertedLoads             1356975                       # Number of loads inserted to the mem dependence unit.
system.cpu0.memDep0.insertedStores              61201                       # Number of stores inserted to the mem dependence unit.
system.cpu0.memDep0.conflictingLoads             2691                       # Number of conflicting loads.
system.cpu0.memDep0.conflictingStores            3367                       # Number of conflicting stores.
system.cpu0.iq.iqInstsAdded                   7018972                       # Number of instructions added to the IQ (excludes non-spec)
system.cpu0.iq.iqNonSpecInstsAdded               3025                       # Number of non-speculative instructions added to the IQ
system.cpu0.iq.iqInstsIssued                  4969164                       # Number of instructions issued
system.cpu0.iq.iqSquashedInstsIssued             4356                       # Number of squashed instructions issued
system.cpu0.iq.iqSquashedInstsExamined        4311604                       # Number of squashed instructions iterated over during squash; mainly for profiling
system.cpu0.iq.iqSquashedOperandsExamined      9455192                       # Number of squashed operands that are examined and possibly removed from graph
system.cpu0.iq.iqSquashedNonSpecRemoved          3024                       # Number of squashed non-spec instructions that were removed
system.cpu0.iq.issued_per_cycle::samples     30512330                       # Number of insts issued each cycle
system.cpu0.iq.issued_per_cycle::mean        0.162858                       # Number of insts issued each cycle
system.cpu0.iq.issued_per_cycle::stdev       0.729134                       # Number of insts issued each cycle
system.cpu0.iq.issued_per_cycle::underflows            0      0.00%      0.00% # Number of insts issued each cycle
system.cpu0.iq.issued_per_cycle::0           28444431     93.22%     93.22% # Number of insts issued each cycle
system.cpu0.iq.issued_per_cycle::1             828538      2.72%     95.94% # Number of insts issued each cycle
system.cpu0.iq.issued_per_cycle::2             440214      1.44%     97.38% # Number of insts issued each cycle
system.cpu0.iq.issued_per_cycle::3             294549      0.97%     98.35% # Number of insts issued each cycle
system.cpu0.iq.issued_per_cycle::4             314656      1.03%     99.38% # Number of insts issued each cycle
system.cpu0.iq.issued_per_cycle::5              81594      0.27%     99.64% # Number of insts issued each cycle
system.cpu0.iq.issued_per_cycle::6              67085      0.22%     99.86% # Number of insts issued each cycle
system.cpu0.iq.issued_per_cycle::7              22657      0.07%     99.94% # Number of insts issued each cycle
system.cpu0.iq.issued_per_cycle::8              18606      0.06%    100.00% # Number of insts issued each cycle
system.cpu0.iq.issued_per_cycle::overflows            0      0.00%    100.00% # Number of insts issued each cycle
system.cpu0.iq.issued_per_cycle::min_value            0                       # Number of insts issued each cycle
system.cpu0.iq.issued_per_cycle::max_value            8                       # Number of insts issued each cycle
system.cpu0.iq.issued_per_cycle::total       30512330                       # Number of insts issued each cycle
system.cpu0.iq.fu_full::No_OpClass                  0      0.00%      0.00% # attempts to use FU when none available
system.cpu0.iq.fu_full::IntAlu                   8699     68.72%     68.72% # attempts to use FU when none available
system.cpu0.iq.fu_full::IntMult                     0      0.00%     68.72% # attempts to use FU when none available
system.cpu0.iq.fu_full::IntDiv                      0      0.00%     68.72% # attempts to use FU when none available
system.cpu0.iq.fu_full::FloatAdd                  952      7.52%     76.24% # attempts to use FU when none available
system.cpu0.iq.fu_full::FloatCmp                    0      0.00%     76.24% # attempts to use FU when none available
system.cpu0.iq.fu_full::FloatCvt                    0      0.00%     76.24% # attempts to use FU when none available
system.cpu0.iq.fu_full::FloatMult                   0      0.00%     76.24% # attempts to use FU when none available
system.cpu0.iq.fu_full::FloatMultAcc                0      0.00%     76.24% # attempts to use FU when none available
system.cpu0.iq.fu_full::FloatDiv                    0      0.00%     76.24% # attempts to use FU when none available
system.cpu0.iq.fu_full::FloatMisc                   0      0.00%     76.24% # attempts to use FU when none available
system.cpu0.iq.fu_full::FloatSqrt                   0      0.00%     76.24% # attempts to use FU when none available
system.cpu0.iq.fu_full::SimdAdd                     0      0.00%     76.24% # attempts to use FU when none available
system.cpu0.iq.fu_full::SimdAddAcc                  0      0.00%     76.24% # attempts to use FU when none available
system.cpu0.iq.fu_full::SimdAlu                     0      0.00%     76.24% # attempts to use FU when none available
system.cpu0.iq.fu_full::SimdCmp                     0      0.00%     76.24% # attempts to use FU when none available
system.cpu0.iq.fu_full::SimdCvt                     0      0.00%     76.24% # attempts to use FU when none available
system.cpu0.iq.fu_full::SimdMisc                    0      0.00%     76.24% # attempts to use FU when none available
system.cpu0.iq.fu_full::SimdMult                    0      0.00%     76.24% # attempts to use FU when none available
system.cpu0.iq.fu_full::SimdMultAcc                 0      0.00%     76.24% # attempts to use FU when none available
system.cpu0.iq.fu_full::SimdShift                   0      0.00%     76.24% # attempts to use FU when none available
system.cpu0.iq.fu_full::SimdShiftAcc                0      0.00%     76.24% # attempts to use FU when none available
system.cpu0.iq.fu_full::SimdSqrt                    0      0.00%     76.24% # attempts to use FU when none available
system.cpu0.iq.fu_full::SimdFloatAdd                0      0.00%     76.24% # attempts to use FU when none available
system.cpu0.iq.fu_full::SimdFloatAlu                0      0.00%     76.24% # attempts to use FU when none available
system.cpu0.iq.fu_full::SimdFloatCmp                0      0.00%     76.24% # attempts to use FU when none available
system.cpu0.iq.fu_full::SimdFloatCvt                0      0.00%     76.24% # attempts to use FU when none available
system.cpu0.iq.fu_full::SimdFloatDiv                0      0.00%     76.24% # attempts to use FU when none available
system.cpu0.iq.fu_full::SimdFloatMisc               0      0.00%     76.24% # attempts to use FU when none available
system.cpu0.iq.fu_full::SimdFloatMult               0      0.00%     76.24% # attempts to use FU when none available
system.cpu0.iq.fu_full::SimdFloatMultAcc            0      0.00%     76.24% # attempts to use FU when none available
system.cpu0.iq.fu_full::SimdFloatSqrt               0      0.00%     76.24% # attempts to use FU when none available
system.cpu0.iq.fu_full::MemRead                  2561     20.23%     96.48% # attempts to use FU when none available
system.cpu0.iq.fu_full::MemWrite                  217      1.71%     98.19% # attempts to use FU when none available
system.cpu0.iq.fu_full::FloatMemRead              135      1.07%     99.26% # attempts to use FU when none available
system.cpu0.iq.fu_full::FloatMemWrite              94      0.74%    100.00% # attempts to use FU when none available
system.cpu0.iq.fu_full::IprAccess                   0      0.00%    100.00% # attempts to use FU when none available
system.cpu0.iq.fu_full::InstPrefetch                0      0.00%    100.00% # attempts to use FU when none available
system.cpu0.iq.FU_type_0::No_OpClass            13623      0.27%      0.27% # Type of FU issued
system.cpu0.iq.FU_type_0::IntAlu              4109754     82.71%     82.98% # Type of FU issued
system.cpu0.iq.FU_type_0::IntMult                 520      0.01%     82.99% # Type of FU issued
system.cpu0.iq.FU_type_0::IntDiv                 8430      0.17%     83.16% # Type of FU issued
system.cpu0.iq.FU_type_0::FloatAdd              12297      0.25%     83.41% # Type of FU issued
system.cpu0.iq.FU_type_0::FloatCmp                  0      0.00%     83.41% # Type of FU issued
system.cpu0.iq.FU_type_0::FloatCvt                  0      0.00%     83.41% # Type of FU issued
system.cpu0.iq.FU_type_0::FloatMult                 0      0.00%     83.41% # Type of FU issued
system.cpu0.iq.FU_type_0::FloatMultAcc              0      0.00%     83.41% # Type of FU issued
system.cpu0.iq.FU_type_0::FloatDiv                  0      0.00%     83.41% # Type of FU issued
system.cpu0.iq.FU_type_0::FloatMisc                 0      0.00%     83.41% # Type of FU issued
system.cpu0.iq.FU_type_0::FloatSqrt                 0      0.00%     83.41% # Type of FU issued
system.cpu0.iq.FU_type_0::SimdAdd                   0      0.00%     83.41% # Type of FU issued
system.cpu0.iq.FU_type_0::SimdAddAcc                0      0.00%     83.41% # Type of FU issued
system.cpu0.iq.FU_type_0::SimdAlu                   0      0.00%     83.41% # Type of FU issued
system.cpu0.iq.FU_type_0::SimdCmp                   0      0.00%     83.41% # Type of FU issued
system.cpu0.iq.FU_type_0::SimdCvt                   0      0.00%     83.41% # Type of FU issued
system.cpu0.iq.FU_type_0::SimdMisc                  0      0.00%     83.41% # Type of FU issued
system.cpu0.iq.FU_type_0::SimdMult                  0      0.00%     83.41% # Type of FU issued
system.cpu0.iq.FU_type_0::SimdMultAcc               0      0.00%     83.41% # Type of FU issued
system.cpu0.iq.FU_type_0::SimdShift                 0      0.00%     83.41% # Type of FU issued
system.cpu0.iq.FU_type_0::SimdShiftAcc              0      0.00%     83.41% # Type of FU issued
system.cpu0.iq.FU_type_0::SimdSqrt                  0      0.00%     83.41% # Type of FU issued
system.cpu0.iq.FU_type_0::SimdFloatAdd              0      0.00%     83.41% # Type of FU issued
system.cpu0.iq.FU_type_0::SimdFloatAlu              0      0.00%     83.41% # Type of FU issued
system.cpu0.iq.FU_type_0::SimdFloatCmp              0      0.00%     83.41% # Type of FU issued
system.cpu0.iq.FU_type_0::SimdFloatCvt              0      0.00%     83.41% # Type of FU issued
system.cpu0.iq.FU_type_0::SimdFloatDiv              0      0.00%     83.41% # Type of FU issued
system.cpu0.iq.FU_type_0::SimdFloatMisc             0      0.00%     83.41% # Type of FU issued
system.cpu0.iq.FU_type_0::SimdFloatMult             0      0.00%     83.41% # Type of FU issued
system.cpu0.iq.FU_type_0::SimdFloatMultAcc            0      0.00%     83.41% # Type of FU issued
system.cpu0.iq.FU_type_0::SimdFloatSqrt             0      0.00%     83.41% # Type of FU issued
system.cpu0.iq.FU_type_0::MemRead              775123     15.60%     99.01% # Type of FU issued
system.cpu0.iq.FU_type_0::MemWrite              46499      0.94%     99.94% # Type of FU issued
system.cpu0.iq.FU_type_0::FloatMemRead           2534      0.05%     99.99% # Type of FU issued
system.cpu0.iq.FU_type_0::FloatMemWrite           384      0.01%    100.00% # Type of FU issued
system.cpu0.iq.FU_type_0::IprAccess                 0      0.00%    100.00% # Type of FU issued
system.cpu0.iq.FU_type_0::InstPrefetch              0      0.00%    100.00% # Type of FU issued
system.cpu0.iq.FU_type_0::total               4969164                       # Type of FU issued
system.cpu0.iq.rate                          0.162738                       # Inst issue rate
system.cpu0.iq.fu_busy_cnt                      12658                       # FU busy when requested
system.cpu0.iq.fu_busy_rate                  0.002547                       # FU busy rate (busy events/executed inst)
system.cpu0.iq.int_inst_queue_reads          40435701                       # Number of integer instruction queue reads
system.cpu0.iq.int_inst_queue_writes         11303933                       # Number of integer instruction queue writes
system.cpu0.iq.int_inst_queue_wakeup_accesses      4786804                       # Number of integer instruction queue wakeup accesses
system.cpu0.iq.fp_inst_queue_reads              31971                       # Number of floating instruction queue reads
system.cpu0.iq.fp_inst_queue_writes             29672                       # Number of floating instruction queue writes
system.cpu0.iq.fp_inst_queue_wakeup_accesses        13562                       # Number of floating instruction queue wakeup accesses
system.cpu0.iq.vec_inst_queue_reads                 0                       # Number of vector instruction queue reads
system.cpu0.iq.vec_inst_queue_writes                0                       # Number of vector instruction queue writes
system.cpu0.iq.vec_inst_queue_wakeup_accesses            0                       # Number of vector instruction queue wakeup accesses
system.cpu0.iq.int_alu_accesses               4951773                       # Number of integer alu accesses
system.cpu0.iq.fp_alu_accesses                  16426                       # Number of floating point alu accesses
system.cpu0.iq.vec_alu_accesses                     0                       # Number of vector alu accesses
system.cpu0.iew.lsq.thread0.forwLoads            4271                       # Number of loads that had data forwarded from stores
system.cpu0.iew.lsq.thread0.invAddrLoads            0                       # Number of loads ignored due to an invalid address
system.cpu0.iew.lsq.thread0.squashedLoads       841090                       # Number of loads squashed
system.cpu0.iew.lsq.thread0.ignoredResponses          149                       # Number of memory responses ignored because the instruction is squashed
system.cpu0.iew.lsq.thread0.memOrderViolation            5                       # Number of memory ordering violations
system.cpu0.iew.lsq.thread0.squashedStores        36394                       # Number of stores squashed
system.cpu0.iew.lsq.thread0.invAddrSwpfs            0                       # Number of software prefetches ignored due to an invalid address
system.cpu0.iew.lsq.thread0.blockedLoads            0                       # Number of blocked loads due to partial load-store forwarding
system.cpu0.iew.lsq.thread0.rescheduledLoads           41                       # Number of loads that were rescheduled
system.cpu0.iew.lsq.thread0.cacheBlocked         1638                       # Number of times an access to memory failed due to the cache being blocked
system.cpu0.iew.iewIdleCycles                       0                       # Number of cycles IEW is idle
system.cpu0.iew.iewSquashCycles                 60784                       # Number of cycles IEW is squashing
system.cpu0.iew.iewBlockCycles               25774352                       # Number of cycles IEW is blocking
system.cpu0.iew.iewUnblockCycles               257881                       # Number of cycles IEW is unblocking
system.cpu0.iew.iewDispatchedInsts            7021997                       # Number of instructions dispatched to IQ
system.cpu0.iew.iewDispSquashedInsts             2889                       # Number of squashed instructions skipped by dispatch
system.cpu0.iew.iewDispLoadInsts              1356975                       # Number of dispatched load instructions
system.cpu0.iew.iewDispStoreInsts               61201                       # Number of dispatched store instructions
system.cpu0.iew.iewDispNonSpecInsts              1151                       # Number of dispatched non-speculative instructions
system.cpu0.iew.iewIQFullEvents                 16112                       # Number of times the IQ has become full, causing a stall
system.cpu0.iew.iewLSQFullEvents                40890                       # Number of times the LSQ has become full, causing a stall
system.cpu0.iew.memOrderViolationEvents             5                       # Number of memory order violations
system.cpu0.iew.predictedTakenIncorrect         35362                       # Number of branches that were predicted taken incorrectly
system.cpu0.iew.predictedNotTakenIncorrect        30995                       # Number of branches that were predicted not taken incorrectly
system.cpu0.iew.branchMispredicts               66357                       # Number of branch mispredicts detected at execute
system.cpu0.iew.iewExecutedInsts              4896192                       # Number of executed instructions
system.cpu0.iew.iewExecLoadInsts               748038                       # Number of load instructions executed
system.cpu0.iew.iewExecSquashedInsts            72972                       # Number of squashed instructions skipped in execute
system.cpu0.iew.exec_swp                            0                       # number of swp insts executed
system.cpu0.iew.exec_nop                            0                       # number of nop insts executed
system.cpu0.iew.exec_refs                      791869                       # number of memory reference insts executed
system.cpu0.iew.exec_branches                  592411                       # Number of branches executed
system.cpu0.iew.exec_stores                     43831                       # Number of stores executed
system.cpu0.iew.exec_rate                    0.160349                       # Inst execution rate
system.cpu0.iew.wb_sent                       4813766                       # cumulative count of insts sent to commit
system.cpu0.iew.wb_count                      4800366                       # cumulative count of insts written-back
system.cpu0.iew.wb_producers                  3555883                       # num instructions producing a value
system.cpu0.iew.wb_consumers                  5589652                       # num instructions consuming a value
system.cpu0.iew.wb_rate                      0.157210                       # insts written-back per cycle
system.cpu0.iew.wb_fanout                    0.636155                       # average fanout of values written-back
system.cpu0.commit.commitSquashedInsts        4311955                       # The number of squashed insts skipped by commit
system.cpu0.commit.commitNonSpecStalls              1                       # The number of times commit has been forced to stall to communicate backwards
system.cpu0.commit.branchMispredicts            60782                       # The number of times a branch was mispredicted
system.cpu0.commit.committed_per_cycle::samples     29915533                       # Number of insts commited each cycle
system.cpu0.commit.committed_per_cycle::mean     0.090602                       # Number of insts commited each cycle
system.cpu0.commit.committed_per_cycle::stdev     0.554974                       # Number of insts commited each cycle
system.cpu0.commit.committed_per_cycle::underflows            0      0.00%      0.00% # Number of insts commited each cycle
system.cpu0.commit.committed_per_cycle::0     28738658     96.07%     96.07% # Number of insts commited each cycle
system.cpu0.commit.committed_per_cycle::1       545277      1.82%     97.89% # Number of insts commited each cycle
system.cpu0.commit.committed_per_cycle::2       127094      0.42%     98.31% # Number of insts commited each cycle
system.cpu0.commit.committed_per_cycle::3       351381      1.17%     99.49% # Number of insts commited each cycle
system.cpu0.commit.committed_per_cycle::4        62389      0.21%     99.70% # Number of insts commited each cycle
system.cpu0.commit.committed_per_cycle::5        34280      0.11%     99.81% # Number of insts commited each cycle
system.cpu0.commit.committed_per_cycle::6         5982      0.02%     99.83% # Number of insts commited each cycle
system.cpu0.commit.committed_per_cycle::7         3828      0.01%     99.84% # Number of insts commited each cycle
system.cpu0.commit.committed_per_cycle::8        46644      0.16%    100.00% # Number of insts commited each cycle
system.cpu0.commit.committed_per_cycle::overflows            0      0.00%    100.00% # Number of insts commited each cycle
system.cpu0.commit.committed_per_cycle::min_value            0                       # Number of insts commited each cycle
system.cpu0.commit.committed_per_cycle::max_value            8                       # Number of insts commited each cycle
system.cpu0.commit.committed_per_cycle::total     29915533                       # Number of insts commited each cycle
system.cpu0.commit.committedInsts             1355700                       # Number of instructions committed
system.cpu0.commit.committedOps               2710404                       # Number of ops (including micro ops) committed
system.cpu0.commit.swp_count                        0                       # Number of s/w prefetches committed
system.cpu0.commit.refs                        540694                       # Number of memory references committed
system.cpu0.commit.loads                       515887                       # Number of loads committed
system.cpu0.commit.membars                          0                       # Number of memory barriers committed
system.cpu0.commit.branches                    491875                       # Number of branches committed
system.cpu0.commit.vec_insts                        0                       # Number of committed Vector instructions.
system.cpu0.commit.fp_insts                      9890                       # Number of committed floating point instructions.
system.cpu0.commit.int_insts                  2700364                       # Number of committed integer instructions.
system.cpu0.commit.function_calls                4379                       # Number of function calls committed.
system.cpu0.commit.op_class_0::No_OpClass         3009      0.11%      0.11% # Class of committed instruction
system.cpu0.commit.op_class_0::IntAlu         2150755     79.35%     79.46% # Class of committed instruction
system.cpu0.commit.op_class_0::IntMult            175      0.01%     79.47% # Class of committed instruction
system.cpu0.commit.op_class_0::IntDiv            7311      0.27%     79.74% # Class of committed instruction
system.cpu0.commit.op_class_0::FloatAdd          8460      0.31%     80.05% # Class of committed instruction
system.cpu0.commit.op_class_0::FloatCmp             0      0.00%     80.05% # Class of committed instruction
system.cpu0.commit.op_class_0::FloatCvt             0      0.00%     80.05% # Class of committed instruction
system.cpu0.commit.op_class_0::FloatMult            0      0.00%     80.05% # Class of committed instruction
system.cpu0.commit.op_class_0::FloatMultAcc            0      0.00%     80.05% # Class of committed instruction
system.cpu0.commit.op_class_0::FloatDiv             0      0.00%     80.05% # Class of committed instruction
system.cpu0.commit.op_class_0::FloatMisc            0      0.00%     80.05% # Class of committed instruction
system.cpu0.commit.op_class_0::FloatSqrt            0      0.00%     80.05% # Class of committed instruction
system.cpu0.commit.op_class_0::SimdAdd              0      0.00%     80.05% # Class of committed instruction
system.cpu0.commit.op_class_0::SimdAddAcc            0      0.00%     80.05% # Class of committed instruction
system.cpu0.commit.op_class_0::SimdAlu              0      0.00%     80.05% # Class of committed instruction
system.cpu0.commit.op_class_0::SimdCmp              0      0.00%     80.05% # Class of committed instruction
system.cpu0.commit.op_class_0::SimdCvt              0      0.00%     80.05% # Class of committed instruction
system.cpu0.commit.op_class_0::SimdMisc             0      0.00%     80.05% # Class of committed instruction
system.cpu0.commit.op_class_0::SimdMult             0      0.00%     80.05% # Class of committed instruction
system.cpu0.commit.op_class_0::SimdMultAcc            0      0.00%     80.05% # Class of committed instruction
system.cpu0.commit.op_class_0::SimdShift            0      0.00%     80.05% # Class of committed instruction
system.cpu0.commit.op_class_0::SimdShiftAcc            0      0.00%     80.05% # Class of committed instruction
system.cpu0.commit.op_class_0::SimdSqrt             0      0.00%     80.05% # Class of committed instruction
system.cpu0.commit.op_class_0::SimdFloatAdd            0      0.00%     80.05% # Class of committed instruction
system.cpu0.commit.op_class_0::SimdFloatAlu            0      0.00%     80.05% # Class of committed instruction
system.cpu0.commit.op_class_0::SimdFloatCmp            0      0.00%     80.05% # Class of committed instruction
system.cpu0.commit.op_class_0::SimdFloatCvt            0      0.00%     80.05% # Class of committed instruction
system.cpu0.commit.op_class_0::SimdFloatDiv            0      0.00%     80.05% # Class of committed instruction
system.cpu0.commit.op_class_0::SimdFloatMisc            0      0.00%     80.05% # Class of committed instruction
system.cpu0.commit.op_class_0::SimdFloatMult            0      0.00%     80.05% # Class of committed instruction
system.cpu0.commit.op_class_0::SimdFloatMultAcc            0      0.00%     80.05% # Class of committed instruction
system.cpu0.commit.op_class_0::SimdFloatSqrt            0      0.00%     80.05% # Class of committed instruction
system.cpu0.commit.op_class_0::MemRead         514457     18.98%     99.03% # Class of committed instruction
system.cpu0.commit.op_class_0::MemWrite         24807      0.92%     99.95% # Class of committed instruction
system.cpu0.commit.op_class_0::FloatMemRead         1430      0.05%    100.00% # Class of committed instruction
system.cpu0.commit.op_class_0::FloatMemWrite            0      0.00%    100.00% # Class of committed instruction
system.cpu0.commit.op_class_0::IprAccess            0      0.00%    100.00% # Class of committed instruction
system.cpu0.commit.op_class_0::InstPrefetch            0      0.00%    100.00% # Class of committed instruction
system.cpu0.commit.op_class_0::total          2710404                       # Class of committed instruction
system.cpu0.commit.bw_lim_events                46644                       # number cycles where commit BW limit reached
system.cpu0.rob.rob_reads                    36891248                       # The number of ROB reads
system.cpu0.rob.rob_writes                   14642776                       # The number of ROB writes
system.cpu0.timesIdled                            172                       # Number of times that the entire CPU went into an idle state and unscheduled itself
system.cpu0.idleCycles                          22358                       # Total number of cycles that the CPU has spent unscheduled due to idling
system.cpu0.committedInsts                    1355700                       # Number of Instructions Simulated
system.cpu0.committedOps                      2710404                       # Number of Ops (including micro ops) Simulated
system.cpu0.cpi                             22.523189                       # CPI: Cycles Per Instruction
system.cpu0.cpi_total                       22.523189                       # CPI: Total CPI of All Threads
system.cpu0.ipc                              0.044399                       # IPC: Instructions Per Cycle
system.cpu0.ipc_total                        0.044399                       # IPC: Total IPC of All Threads
system.cpu0.int_regfile_reads                 4767060                       # number of integer regfile reads
system.cpu0.int_regfile_writes                4169102                       # number of integer regfile writes
system.cpu0.fp_regfile_reads                    24083                       # number of floating regfile reads
system.cpu0.fp_regfile_writes                   11927                       # number of floating regfile writes
system.cpu0.cc_regfile_reads                  3143432                       # number of cc regfile reads
system.cpu0.cc_regfile_writes                 1305214                       # number of cc regfile writes
system.cpu0.misc_regfile_reads                2619254                       # number of misc regfile reads
system.cpu0.dcache.tags.pwrStateResidencyTicks::UNDEFINED  15267344125                       # Cumulative time (in ticks) in various power states
system.cpu0.dcache.tags.replacements           269257                       # number of replacements
system.cpu0.dcache.tags.tagsinuse                1024                       # Cycle average of tags in use
system.cpu0.dcache.tags.total_refs             293745                       # Total number of references to valid blocks.
system.cpu0.dcache.tags.sampled_refs           269257                       # Sample count of references to valid blocks.
system.cpu0.dcache.tags.avg_refs             1.090947                       # Average number of references to valid blocks.
system.cpu0.dcache.tags.warmup_cycle                0                       # Cycle when the warmup percentage was hit.
system.cpu0.dcache.tags.occ_blocks::cpu0.data         1024                       # Average occupied blocks per requestor
system.cpu0.dcache.tags.occ_percent::cpu0.data            1                       # Average percentage of cache occupancy
system.cpu0.dcache.tags.occ_percent::total            1                       # Average percentage of cache occupancy
system.cpu0.dcache.tags.occ_task_id_blocks::1024         1024                       # Occupied blocks per task id
system.cpu0.dcache.tags.age_task_id_blocks_1024::0          133                       # Occupied blocks per task id
system.cpu0.dcache.tags.age_task_id_blocks_1024::1          792                       # Occupied blocks per task id
system.cpu0.dcache.tags.age_task_id_blocks_1024::2           99                       # Occupied blocks per task id
system.cpu0.dcache.tags.occ_task_id_percent::1024            1                       # Percentage of cache occupancy per task id
system.cpu0.dcache.tags.tag_accesses          3326721                       # Number of tag accesses
system.cpu0.dcache.tags.data_accesses         3326721                       # Number of data accesses
system.cpu0.dcache.pwrStateResidencyTicks::UNDEFINED  15267344125                       # Cumulative time (in ticks) in various power states
system.cpu0.dcache.ReadReq_hits::cpu0.data       266692                       # number of ReadReq hits
system.cpu0.dcache.ReadReq_hits::total         266692                       # number of ReadReq hits
system.cpu0.dcache.WriteReq_hits::cpu0.data        23866                       # number of WriteReq hits
system.cpu0.dcache.WriteReq_hits::total         23866                       # number of WriteReq hits
system.cpu0.dcache.demand_hits::cpu0.data       290558                       # number of demand (read+write) hits
system.cpu0.dcache.demand_hits::total          290558                       # number of demand (read+write) hits
system.cpu0.dcache.overall_hits::cpu0.data       290558                       # number of overall hits
system.cpu0.dcache.overall_hits::total         290558                       # number of overall hits
system.cpu0.dcache.ReadReq_misses::cpu0.data       472867                       # number of ReadReq misses
system.cpu0.dcache.ReadReq_misses::total       472867                       # number of ReadReq misses
system.cpu0.dcache.WriteReq_misses::cpu0.data          941                       # number of WriteReq misses
system.cpu0.dcache.WriteReq_misses::total          941                       # number of WriteReq misses
system.cpu0.dcache.demand_misses::cpu0.data       473808                       # number of demand (read+write) misses
system.cpu0.dcache.demand_misses::total        473808                       # number of demand (read+write) misses
system.cpu0.dcache.overall_misses::cpu0.data       473808                       # number of overall misses
system.cpu0.dcache.overall_misses::total       473808                       # number of overall misses
system.cpu0.dcache.ReadReq_miss_latency::cpu0.data  34562494500                       # number of ReadReq miss cycles
system.cpu0.dcache.ReadReq_miss_latency::total  34562494500                       # number of ReadReq miss cycles
system.cpu0.dcache.WriteReq_miss_latency::cpu0.data     34785496                       # number of WriteReq miss cycles
system.cpu0.dcache.WriteReq_miss_latency::total     34785496                       # number of WriteReq miss cycles
system.cpu0.dcache.demand_miss_latency::cpu0.data  34597279996                       # number of demand (read+write) miss cycles
system.cpu0.dcache.demand_miss_latency::total  34597279996                       # number of demand (read+write) miss cycles
system.cpu0.dcache.overall_miss_latency::cpu0.data  34597279996                       # number of overall miss cycles
system.cpu0.dcache.overall_miss_latency::total  34597279996                       # number of overall miss cycles
system.cpu0.dcache.ReadReq_accesses::cpu0.data       739559                       # number of ReadReq accesses(hits+misses)
system.cpu0.dcache.ReadReq_accesses::total       739559                       # number of ReadReq accesses(hits+misses)
system.cpu0.dcache.WriteReq_accesses::cpu0.data        24807                       # number of WriteReq accesses(hits+misses)
system.cpu0.dcache.WriteReq_accesses::total        24807                       # number of WriteReq accesses(hits+misses)
system.cpu0.dcache.demand_accesses::cpu0.data       764366                       # number of demand (read+write) accesses
system.cpu0.dcache.demand_accesses::total       764366                       # number of demand (read+write) accesses
system.cpu0.dcache.overall_accesses::cpu0.data       764366                       # number of overall (read+write) accesses
system.cpu0.dcache.overall_accesses::total       764366                       # number of overall (read+write) accesses
system.cpu0.dcache.ReadReq_miss_rate::cpu0.data     0.639391                       # miss rate for ReadReq accesses
system.cpu0.dcache.ReadReq_miss_rate::total     0.639391                       # miss rate for ReadReq accesses
system.cpu0.dcache.WriteReq_miss_rate::cpu0.data     0.037933                       # miss rate for WriteReq accesses
system.cpu0.dcache.WriteReq_miss_rate::total     0.037933                       # miss rate for WriteReq accesses
system.cpu0.dcache.demand_miss_rate::cpu0.data     0.619871                       # miss rate for demand accesses
[...]
system.l2.ReadExReq_miss_rate::cpu0.data     0.258824                       # miss rate for ReadExReq accesses
system.l2.ReadExReq_miss_rate::total         0.258824                       # miss rate for ReadExReq accesses
system.l2.ReadCleanReq_miss_rate::cpu0.inst     0.333333                       # miss rate for ReadCleanReq accesses
system.l2.ReadCleanReq_miss_rate::total      0.333333                       # miss rate for ReadCleanReq accesses
system.l2.ReadSharedReq_miss_rate::cpu0.data     0.706530                       # miss rate for ReadSharedReq accesses
system.l2.ReadSharedReq_miss_rate::total     0.706530                       # miss rate for ReadSharedReq accesses
system.l2.demand_miss_rate::cpu0.inst        0.333333                       # miss rate for demand accesses
system.l2.demand_miss_rate::cpu0.data        0.704975                       # miss rate for demand accesses
system.l2.demand_miss_rate::total            0.704971                       # miss rate for demand accesses
system.l2.overall_miss_rate::cpu0.inst       0.333333                       # miss rate for overall accesses
system.l2.overall_miss_rate::cpu0.data       0.704975                       # miss rate for overall accesses
system.l2.overall_miss_rate::total           0.704971                       # miss rate for overall accesses
system.l2.ReadExReq_avg_miss_latency::cpu0.data 99648.760331                       # average ReadExReq miss latency
system.l2.ReadExReq_avg_miss_latency::total 99648.760331                       # average ReadExReq miss latency
system.l2.ReadCleanReq_avg_miss_latency::cpu0.inst       341000                       # average ReadCleanReq miss latency
system.l2.ReadCleanReq_avg_miss_latency::total       341000                       # average ReadCleanReq miss latency
system.l2.ReadSharedReq_avg_miss_latency::cpu0.data 94887.501582                       # average ReadSharedReq miss latency
system.l2.ReadSharedReq_avg_miss_latency::total 94887.501582                       # average ReadSharedReq miss latency
system.l2.demand_avg_miss_latency::cpu0.inst       341000                       # average overall miss latency
system.l2.demand_avg_miss_latency::cpu0.data 94893.571737                       # average overall miss latency
system.l2.demand_avg_miss_latency::total 94894.868269                       # average overall miss latency
system.l2.overall_avg_miss_latency::cpu0.inst       341000                       # average overall miss latency
system.l2.overall_avg_miss_latency::cpu0.data 94893.571737                       # average overall miss latency
system.l2.overall_avg_miss_latency::total 94894.868269                       # average overall miss latency
system.l2.blocked_cycles::no_mshrs                  0                       # number of cycles access was blocked
system.l2.blocked_cycles::no_targets                0                       # number of cycles access was blocked
system.l2.blocked::no_mshrs                         0                       # number of cycles access was blocked
system.l2.blocked::no_targets                       0                       # number of cycles access was blocked
system.l2.avg_blocked_cycles::no_mshrs            nan                       # average number of cycles each access was blocked
system.l2.avg_blocked_cycles::no_targets          nan                       # average number of cycles each access was blocked
system.l2.writebacks::writebacks                  360                       # number of writebacks
system.l2.writebacks::total                       360                       # number of writebacks
system.l2.ReadExReq_mshr_misses::cpu0.data          242                       # number of ReadExReq MSHR misses
system.l2.ReadExReq_mshr_misses::total            242                       # number of ReadExReq MSHR misses
system.l2.ReadCleanReq_mshr_misses::cpu0.inst            1                       # number of ReadCleanReq MSHR misses
system.l2.ReadCleanReq_mshr_misses::total            1                       # number of ReadCleanReq MSHR misses
system.l2.ReadSharedReq_mshr_misses::cpu0.data       189576                       # number of ReadSharedReq MSHR misses
system.l2.ReadSharedReq_mshr_misses::total       189576                       # number of ReadSharedReq MSHR misses
system.l2.demand_mshr_misses::cpu0.inst             1                       # number of demand (read+write) MSHR misses
system.l2.demand_mshr_misses::cpu0.data        189818                       # number of demand (read+write) MSHR misses
system.l2.demand_mshr_misses::total            189819                       # number of demand (read+write) MSHR misses
system.l2.overall_mshr_misses::cpu0.inst            1                       # number of overall MSHR misses
system.l2.overall_mshr_misses::cpu0.data       189818                       # number of overall MSHR misses
system.l2.overall_mshr_misses::total           189819                       # number of overall MSHR misses
system.l2.ReadExReq_mshr_miss_latency::cpu0.data     21695000                       # number of ReadExReq MSHR miss cycles
system.l2.ReadExReq_mshr_miss_latency::total     21695000                       # number of ReadExReq MSHR miss cycles
system.l2.ReadCleanReq_mshr_miss_latency::cpu0.inst       331000                       # number of ReadCleanReq MSHR miss cycles
system.l2.ReadCleanReq_mshr_miss_latency::total       331000                       # number of ReadCleanReq MSHR miss cycles
system.l2.ReadSharedReq_mshr_miss_latency::cpu0.data  16092613000                       # number of ReadSharedReq MSHR miss cycles
system.l2.ReadSharedReq_mshr_miss_latency::total  16092613000                       # number of ReadSharedReq MSHR miss cycles
system.l2.demand_mshr_miss_latency::cpu0.inst       331000                       # number of demand (read+write) MSHR miss cycles
system.l2.demand_mshr_miss_latency::cpu0.data  16114308000                       # number of demand (read+write) MSHR miss cycles
system.l2.demand_mshr_miss_latency::total  16114639000                       # number of demand (read+write) MSHR miss cycles
system.l2.overall_mshr_miss_latency::cpu0.inst       331000                       # number of overall MSHR miss cycles
system.l2.overall_mshr_miss_latency::cpu0.data  16114308000                       # number of overall MSHR miss cycles
system.l2.overall_mshr_miss_latency::total  16114639000                       # number of overall MSHR miss cycles
system.l2.ReadExReq_mshr_miss_rate::cpu0.data     0.258824                       # mshr miss rate for ReadExReq accesses
system.l2.ReadExReq_mshr_miss_rate::total     0.258824                       # mshr miss rate for ReadExReq accesses
system.l2.ReadCleanReq_mshr_miss_rate::cpu0.inst     0.333333                       # mshr miss rate for ReadCleanReq accesses
system.l2.ReadCleanReq_mshr_miss_rate::total     0.333333                       # mshr miss rate for ReadCleanReq accesses
system.l2.ReadSharedReq_mshr_miss_rate::cpu0.data     0.706530                       # mshr miss rate for ReadSharedReq accesses
system.l2.ReadSharedReq_mshr_miss_rate::total     0.706530                       # mshr miss rate for ReadSharedReq accesses
system.l2.demand_mshr_miss_rate::cpu0.inst     0.333333                       # mshr miss rate for demand accesses
system.l2.demand_mshr_miss_rate::cpu0.data     0.704975                       # mshr miss rate for demand accesses
system.l2.demand_mshr_miss_rate::total       0.704971                       # mshr miss rate for demand accesses
system.l2.overall_mshr_miss_rate::cpu0.inst     0.333333                       # mshr miss rate for overall accesses
system.l2.overall_mshr_miss_rate::cpu0.data     0.704975                       # mshr miss rate for overall accesses
system.l2.overall_mshr_miss_rate::total      0.704971                       # mshr miss rate for overall accesses
system.l2.ReadExReq_avg_mshr_miss_latency::cpu0.data 89648.760331                       # average ReadExReq mshr miss latency
system.l2.ReadExReq_avg_mshr_miss_latency::total 89648.760331                       # average ReadExReq mshr miss latency
system.l2.ReadCleanReq_avg_mshr_miss_latency::cpu0.inst       331000                       # average ReadCleanReq mshr miss latency
system.l2.ReadCleanReq_avg_mshr_miss_latency::total       331000                       # average ReadCleanReq mshr miss latency
system.l2.ReadSharedReq_avg_mshr_miss_latency::cpu0.data 84887.396084                       # average ReadSharedReq mshr miss latency
system.l2.ReadSharedReq_avg_mshr_miss_latency::total 84887.396084                       # average ReadSharedReq mshr miss latency
system.l2.demand_avg_mshr_miss_latency::cpu0.inst       331000                       # average overall mshr miss latency
system.l2.demand_avg_mshr_miss_latency::cpu0.data 84893.466373                       # average overall mshr miss latency
system.l2.demand_avg_mshr_miss_latency::total 84894.762906                       # average overall mshr miss latency
system.l2.overall_avg_mshr_miss_latency::cpu0.inst       331000                       # average overall mshr miss latency
system.l2.overall_avg_mshr_miss_latency::cpu0.data 84893.466373                       # average overall mshr miss latency
system.l2.overall_avg_mshr_miss_latency::total 84894.762906                       # average overall mshr miss latency
system.membus.snoop_filter.tot_requests        379639                       # Total number of requests made to the snoop filter.
system.membus.snoop_filter.hit_single_requests       189822                       # Number of requests hitting in the snoop filter with a single holder of the requested data.
system.membus.snoop_filter.hit_multi_requests            0                       # Number of requests hitting in the snoop filter with multiple (>1) holders of the requested data.
system.membus.snoop_filter.tot_snoops               0                       # Total number of snoops made to the snoop filter.
system.membus.snoop_filter.hit_single_snoops            0                       # Number of snoops hitting in the snoop filter with a single holder of the requested data.
system.membus.snoop_filter.hit_multi_snoops            0                       # Number of snoops hitting in the snoop filter with multiple (>1) holders of the requested data.
system.membus.pwrStateResidencyTicks::UNDEFINED  15267344125                       # Cumulative time (in ticks) in various power states
system.membus.trans_dist::ReadResp             189579                       # Transaction distribution
system.membus.trans_dist::WritebackDirty          360                       # Transaction distribution
system.membus.trans_dist::CleanEvict           189460                       # Transaction distribution
system.membus.trans_dist::ReadExReq               242                       # Transaction distribution
system.membus.trans_dist::ReadExResp              242                       # Transaction distribution
system.membus.trans_dist::ReadSharedReq        189577                       # Transaction distribution
system.membus.pkt_count_system.l2.mem_side::system.mem_ctrls.port       569460                       # Packet count per connected master and slave (bytes)
system.membus.pkt_count_system.l2.mem_side::total       569460                       # Packet count per connected master and slave (bytes)
system.membus.pkt_count::total                 569460                       # Packet count per connected master and slave (bytes)
system.membus.pkt_size_system.l2.mem_side::system.mem_ctrls.port     12171584                       # Cumulative packet size per connected master and slave (bytes)
system.membus.pkt_size_system.l2.mem_side::total     12171584                       # Cumulative packet size per connected master and slave (bytes)
system.membus.pkt_size::total                12171584                       # Cumulative packet size per connected master and slave (bytes)
system.membus.snoops                                0                       # Total snoops (count)
system.membus.snoopTraffic                          0                       # Total snoop traffic (bytes)
system.membus.snoop_fanout::samples            189819                       # Request fanout histogram
system.membus.snoop_fanout::mean                    0                       # Request fanout histogram
system.membus.snoop_fanout::stdev                   0                       # Request fanout histogram
system.membus.snoop_fanout::underflows              0      0.00%      0.00% # Request fanout histogram
system.membus.snoop_fanout::0                  189819    100.00%    100.00% # Request fanout histogram
system.membus.snoop_fanout::1                       0      0.00%    100.00% # Request fanout histogram
system.membus.snoop_fanout::overflows               0      0.00%    100.00% # Request fanout histogram
system.membus.snoop_fanout::min_value               0                       # Request fanout histogram
system.membus.snoop_fanout::max_value               0                       # Request fanout histogram
system.membus.snoop_fanout::total              189819                       # Request fanout histogram
system.membus.reqLayer8.occupancy           446512500                       # Layer occupancy (ticks)
system.membus.reqLayer8.utilization               2.9                       # Layer utilization (%)
system.membus.respLayer1.occupancy         1027235250                       # Layer occupancy (ticks)
system.membus.respLayer1.utilization              6.7                       # Layer utilization (%)
system.tol2bus.snoop_filter.tot_requests       538518                       # Total number of requests made to the snoop filter.
system.tol2bus.snoop_filter.hit_single_requests       269256                       # Number of requests hitting in the snoop filter with a single holder of the requested data.
system.tol2bus.snoop_filter.hit_multi_requests          644                       # Number of requests hitting in the snoop filter with multiple (>1) holders of the requested data.
system.tol2bus.snoop_filter.tot_snoops              4                       # Total number of snoops made to the snoop filter.
system.tol2bus.snoop_filter.hit_single_snoops            4                       # Number of snoops hitting in the snoop filter with a single holder of the requested data.
system.tol2bus.snoop_filter.hit_multi_snoops            0                       # Number of snoops hitting in the snoop filter with multiple (>1) holders of the requested data.
system.tol2bus.pwrStateResidencyTicks::UNDEFINED  15267344125                       # Cumulative time (in ticks) in various power states
system.tol2bus.trans_dist::ReadResp            268325                       # Transaction distribution
system.tol2bus.trans_dist::WritebackDirty         3044                       # Transaction distribution
system.tol2bus.trans_dist::WritebackClean            3                       # Transaction distribution
system.tol2bus.trans_dist::CleanEvict          456037                       # Transaction distribution
system.tol2bus.trans_dist::ReadExReq              935                       # Transaction distribution
system.tol2bus.trans_dist::ReadExResp             935                       # Transaction distribution
system.tol2bus.trans_dist::ReadCleanReq             3                       # Transaction distribution
system.tol2bus.trans_dist::ReadSharedReq       268320                       # Transaction distribution
system.tol2bus.pkt_count_system.cpu0.icache.mem_side::system.l2.cpu_side            9                       # Packet count per connected master and slave (bytes)
system.tol2bus.pkt_count_system.cpu0.dcache.mem_side::system.l2.cpu_side       807769                       # Packet count per connected master and slave (bytes)
system.tol2bus.pkt_count::total                807778                       # Packet count per connected master and slave (bytes)
system.tol2bus.pkt_size_system.cpu0.icache.mem_side::system.l2.cpu_side          384                       # Cumulative packet size per connected master and slave (bytes)
system.tol2bus.pkt_size_system.cpu0.dcache.mem_side::system.l2.cpu_side     17404224                       # Cumulative packet size per connected master and slave (bytes)
system.tol2bus.pkt_size::total               17404608                       # Cumulative packet size per connected master and slave (bytes)
system.tol2bus.snoops                          189824                       # Total snoops (count)
system.tol2bus.snoopTraffic                     23040                       # Total snoop traffic (bytes)
system.tol2bus.snoop_fanout::samples           459082                       # Request fanout histogram
system.tol2bus.snoop_fanout::mean            0.001403                       # Request fanout histogram
system.tol2bus.snoop_fanout::stdev           0.037428                       # Request fanout histogram
system.tol2bus.snoop_fanout::underflows             0      0.00%      0.00% # Request fanout histogram
system.tol2bus.snoop_fanout::0                 458438     99.86%     99.86% # Request fanout histogram
system.tol2bus.snoop_fanout::1                    644      0.14%    100.00% # Request fanout histogram
system.tol2bus.snoop_fanout::2                      0      0.00%    100.00% # Request fanout histogram
system.tol2bus.snoop_fanout::3                      0      0.00%    100.00% # Request fanout histogram
system.tol2bus.snoop_fanout::4                      0      0.00%    100.00% # Request fanout histogram
system.tol2bus.snoop_fanout::5                      0      0.00%    100.00% # Request fanout histogram
system.tol2bus.snoop_fanout::6                      0      0.00%    100.00% # Request fanout histogram
system.tol2bus.snoop_fanout::7                      0      0.00%    100.00% # Request fanout histogram
system.tol2bus.snoop_fanout::8                      0      0.00%    100.00% # Request fanout histogram
system.tol2bus.snoop_fanout::9                      0      0.00%    100.00% # Request fanout histogram
system.tol2bus.snoop_fanout::10                     0      0.00%    100.00% # Request fanout histogram
system.tol2bus.snoop_fanout::11                     0      0.00%    100.00% # Request fanout histogram
system.tol2bus.snoop_fanout::12                     0      0.00%    100.00% # Request fanout histogram
system.tol2bus.snoop_fanout::13                     0      0.00%    100.00% # Request fanout histogram
system.tol2bus.snoop_fanout::14                     0      0.00%    100.00% # Request fanout histogram
system.tol2bus.snoop_fanout::15                     0      0.00%    100.00% # Request fanout histogram
system.tol2bus.snoop_fanout::16                     0      0.00%    100.00% # Request fanout histogram
system.tol2bus.snoop_fanout::overflows              0      0.00%    100.00% # Request fanout histogram
system.tol2bus.snoop_fanout::min_value              0                       # Request fanout histogram
system.tol2bus.snoop_fanout::max_value              1                       # Request fanout histogram
system.tol2bus.snoop_fanout::total             459082                       # Request fanout histogram
system.tol2bus.reqLayer0.occupancy          271946000                       # Layer occupancy (ticks)
system.tol2bus.reqLayer0.utilization              1.8                       # Layer utilization (%)
system.tol2bus.respLayer0.occupancy              4500                       # Layer occupancy (ticks)
system.tol2bus.respLayer0.utilization             0.0                       # Layer utilization (%)
system.tol2bus.respLayer1.occupancy         403885500                       # Layer occupancy (ticks)
system.tol2bus.respLayer1.utilization             2.6                       # Layer utilization (%)

---------- End Simulation Statistics   ----------
