
---------- Begin Simulation Statistics ----------
sim_seconds                                  0.015267                       # Number of seconds simulated
sim_ticks                                 15267344125                       # Number of ticks simulated
final_tick                               2274834274625                       # Number of ticks from beginning of simulation (restored from checkpoints and never reset)
sim_freq                                 1000000000000                       # Frequency of simulated ticks
host_inst_rate                               11800443                       # Simulator instruction rate (inst/s)
host_op_rate                                 21563070                       # Simulator op (including micro ops) rate (op/s)
host_tick_rate                               35665607                       # Simulator tick rate (ticks/s)
host_mem_usage                                2332536                       # Number of bytes of host memory used
host_seconds                                   428.07                       # Real time elapsed on the host
sim_insts                                  5051404337                       # Number of instructions simulated
sim_ops                                    9230483179                       # Number of ops (including micro ops) simulated
system.voltage_domain.voltage                       1                       # Voltage in Volts
system.clk_domain.clock                          1000                       # Clock period in ticks
system.mem_ctrls.pwrStateResidencyTicks::UNDEFINED  15267344125                       # Cumulative time (in ticks) in various power states
system.mem_ctrls.bytes_read::cpu0.inst            256                       # Number of bytes read from this memory
system.mem_ctrls.bytes_read::cpu0.data        1071168                       # Number of bytes read from this memory
system.mem_ctrls.bytes_read::total            1071424                       # Number of bytes read from this memory
system.mem_ctrls.bytes_inst_read::cpu0.inst          256                       # Number of instructions bytes read from this memory
system.mem_ctrls.bytes_inst_read::total           256                       # Number of instructions bytes read from this memory
system.mem_ctrls.bytes_written::writebacks      1035328                       # Number of bytes written to this memory
system.mem_ctrls.bytes_written::total         1035328                       # Number of bytes written to this memory
system.mem_ctrls.num_reads::cpu0.inst               4                       # Number of read requests responded to by this memory
system.mem_ctrls.num_reads::cpu0.data           16737                       # Number of read requests responded to by this memory
system.mem_ctrls.num_reads::total               16741                       # Number of read requests responded to by this memory
system.mem_ctrls.num_writes::writebacks         16177                       # Number of write requests responded to by this memory
system.mem_ctrls.num_writes::total              16177                       # Number of write requests responded to by this memory
system.mem_ctrls.bw_read::cpu0.inst             16768                       # Total read bandwidth from this memory (bytes/s)
system.mem_ctrls.bw_read::cpu0.data          70160729                       # Total read bandwidth from this memory (bytes/s)
system.mem_ctrls.bw_read::total              70177497                       # Total read bandwidth from this memory (bytes/s)
system.mem_ctrls.bw_inst_read::cpu0.inst        16768                       # Instruction read bandwidth from this memory (bytes/s)
system.mem_ctrls.bw_inst_read::total            16768                       # Instruction read bandwidth from this memory (bytes/s)
system.mem_ctrls.bw_write::writebacks        67813235                       # Write bandwidth from this memory (bytes/s)
system.mem_ctrls.bw_write::total             67813235                       # Write bandwidth from this memory (bytes/s)
system.mem_ctrls.bw_total::writebacks        67813235                       # Total bandwidth to/from this memory (bytes/s)
system.mem_ctrls.bw_total::cpu0.inst            16768                       # Total bandwidth to/from this memory (bytes/s)
system.mem_ctrls.bw_total::cpu0.data         70160729                       # Total bandwidth to/from this memory (bytes/s)
system.mem_ctrls.bw_total::total            137990733                       # Total bandwidth to/from this memory (bytes/s)
system.mem_ctrls.readReqs                       16741                       # Number of read requests accepted
system.mem_ctrls.writeReqs                      16177                       # Number of write requests accepted
system.mem_ctrls.readBursts                     16741                       # Number of DRAM read bursts, including those serviced by the write queue
system.mem_ctrls.writeBursts                    16177                       # Number of DRAM write bursts, including those merged in the write queue
system.mem_ctrls.bytesReadDRAM                1071424                       # Total number of bytes read from DRAM
system.mem_ctrls.bytesReadWrQ                       0                       # Total number of bytes read from write queue
system.mem_ctrls.bytesWritten                 1035584                       # Total number of bytes written to DRAM
system.mem_ctrls.bytesReadSys                 1071424                       # Total read bytes from the system interface side
system.mem_ctrls.bytesWrittenSys              1035328                       # Total written bytes from the system interface side
system.mem_ctrls.servicedByWrQ                      0                       # Number of DRAM read bursts serviced by the write queue
system.mem_ctrls.mergedWrBursts                     0                       # Number of DRAM write bursts merged with an existing one
system.mem_ctrls.neitherReadNorWriteReqs            0                       # Number of requests that are neither read nor write
system.mem_ctrls.perBankRdBursts::0               944                       # Per bank write bursts
system.mem_ctrls.perBankRdBursts::1              1015                       # Per bank write bursts
system.mem_ctrls.perBankRdBursts::2               945                       # Per bank write bursts
system.mem_ctrls.perBankRdBursts::3              1034                       # Per bank write bursts
system.mem_ctrls.perBankRdBursts::4              1077                       # Per bank write bursts
system.mem_ctrls.perBankRdBursts::5              1138                       # Per bank write bursts
system.mem_ctrls.perBankRdBursts::6               991                       # Per bank write bursts
system.mem_ctrls.perBankRdBursts::7               927                       # Per bank write bursts
system.mem_ctrls.perBankRdBursts::8              1093                       # Per bank write bursts
system.mem_ctrls.perBankRdBursts::9              1122                       # Per bank write bursts
system.mem_ctrls.perBankRdBursts::10             1055                       # Per bank write bursts
system.mem_ctrls.perBankRdBursts::11             1110                       # Per bank write bursts
system.mem_ctrls.perBankRdBursts::12             1072                       # Per bank write bursts
system.mem_ctrls.perBankRdBursts::13             1140                       # Per bank write bursts
system.mem_ctrls.perBankRdBursts::14             1106                       # Per bank write bursts
system.mem_ctrls.perBankRdBursts::15              972                       # Per bank write bursts
system.mem_ctrls.perBankWrBursts::0               909                       # Per bank write bursts
system.mem_ctrls.perBankWrBursts::1               982                       # Per bank write bursts
system.mem_ctrls.perBankWrBursts::2               914                       # Per bank write bursts
system.mem_ctrls.perBankWrBursts::3              1017                       # Per bank write bursts
system.mem_ctrls.perBankWrBursts::4              1050                       # Per bank write bursts
system.mem_ctrls.perBankWrBursts::5              1081                       # Per bank write bursts
system.mem_ctrls.perBankWrBursts::6               965                       # Per bank write bursts
system.mem_ctrls.perBankWrBursts::7               885                       # Per bank write bursts
system.mem_ctrls.perBankWrBursts::8              1055                       # Per bank write bursts
system.mem_ctrls.perBankWrBursts::9              1089                       # Per bank write bursts
system.mem_ctrls.perBankWrBursts::10             1023                       # Per bank write bursts
system.mem_ctrls.perBankWrBursts::11             1087                       # Per bank write bursts
system.mem_ctrls.perBankWrBursts::12             1024                       # Per bank write bursts
system.mem_ctrls.perBankWrBursts::13             1094                       # Per bank write bursts
system.mem_ctrls.perBankWrBursts::14             1066                       # Per bank write bursts
system.mem_ctrls.perBankWrBursts::15              940                       # Per bank write bursts
system.mem_ctrls.numRdRetry                         0                       # Number of times read queue was full causing retry
system.mem_ctrls.numWrRetry                         0                       # Number of times write queue was full causing retry
system.mem_ctrls.totGap                   15269376500                       # Total gap between requests
system.mem_ctrls.readPktSize::0                     0                       # Read request sizes (log2)
system.mem_ctrls.readPktSize::1                     0                       # Read request sizes (log2)
system.mem_ctrls.readPktSize::2                     0                       # Read request sizes (log2)
system.mem_ctrls.readPktSize::3                     0                       # Read request sizes (log2)
system.mem_ctrls.readPktSize::4                     0                       # Read request sizes (log2)
system.mem_ctrls.readPktSize::5                     0                       # Read request sizes (log2)
system.mem_ctrls.readPktSize::6                 16741                       # Read request sizes (log2)
system.mem_ctrls.writePktSize::0                    0                       # Write request sizes (log2)
system.mem_ctrls.writePktSize::1                    0                       # Write request sizes (log2)
system.mem_ctrls.writePktSize::2                    0                       # Write request sizes (log2)
system.mem_ctrls.writePktSize::3                    0                       # Write request sizes (log2)
system.mem_ctrls.writePktSize::4                    0                       # Write request sizes (log2)
system.mem_ctrls.writePktSize::5                    0                       # Write request sizes (log2)
system.mem_ctrls.writePktSize::6                16177                       # Write request sizes (log2)
system.mem_ctrls.rdQLenPdf::0                   15896                       # What read queue length does an incoming req see
system.mem_ctrls.rdQLenPdf::1                     838                       # What read queue length does an incoming req see
system.mem_ctrls.rdQLenPdf::2                       7                       # What read queue length does an incoming req see
system.mem_ctrls.rdQLenPdf::3                       0                       # What read queue length does an incoming req see
system.mem_ctrls.rdQLenPdf::4                       0                       # What read queue length does an incoming req see
system.mem_ctrls.rdQLenPdf::5                       0                       # What read queue length does an incoming req see
system.mem_ctrls.rdQLenPdf::6                       0                       # What read queue length does an incoming req see
system.mem_ctrls.rdQLenPdf::7                       0                       # What read queue length does an incoming req see
system.mem_ctrls.rdQLenPdf::8                       0                       # What read queue length does an incoming req see
system.mem_ctrls.rdQLenPdf::9                       0                       # What read queue length does an incoming req see
system.mem_ctrls.rdQLenPdf::10                      0                       # What read queue length does an incoming req see
system.mem_ctrls.rdQLenPdf::11                      0                       # What read queue length does an incoming req see
system.mem_ctrls.rdQLenPdf::12                      0                       # What read queue length does an incoming req see
system.mem_ctrls.rdQLenPdf::13                      0                       # What read queue length does an incoming req see
system.mem_ctrls.rdQLenPdf::14                      0                       # What read queue length does an incoming req see
system.mem_ctrls.rdQLenPdf::15                      0                       # What read queue length does an incoming req see
system.mem_ctrls.rdQLenPdf::16                      0                       # What read queue length does an incoming req see
system.mem_ctrls.rdQLenPdf::17                      0                       # What read queue length does an incoming req see
system.mem_ctrls.rdQLenPdf::18                      0                       # What read queue length does an incoming req see
system.mem_ctrls.rdQLenPdf::19                      0                       # What read queue length does an incoming req see
system.mem_ctrls.rdQLenPdf::20                      0                       # What read queue length does an incoming req see
system.mem_ctrls.rdQLenPdf::21                      0                       # What read queue length does an incoming req see
system.mem_ctrls.rdQLenPdf::22                      0                       # What read queue length does an incoming req see
system.mem_ctrls.rdQLenPdf::23                      0                       # What read queue length does an incoming req see
system.mem_ctrls.rdQLenPdf::24                      0                       # What read queue length does an incoming req see
system.mem_ctrls.rdQLenPdf::25                      0                       # What read queue length does an incoming req see
system.mem_ctrls.rdQLenPdf::26                      0                       # What read queue length does an incoming req see
system.mem_ctrls.rdQLenPdf::27                      0                       # What read queue length does an incoming req see
system.mem_ctrls.rdQLenPdf::28                      0                       # What read queue length does an incoming req see
system.mem_ctrls.rdQLenPdf::29                      0                       # What read queue length does an incoming req see
system.mem_ctrls.rdQLenPdf::30                      0                       # What read queue length does an incoming req see
system.mem_ctrls.rdQLenPdf::31                      0                       # What read queue length does an incoming req see
system.mem_ctrls.wrQLenPdf::0                       0                       # What write queue length does an incoming req see
system.mem_ctrls.wrQLenPdf::1                       0                       # What write queue length does an incoming req see
system.mem_ctrls.wrQLenPdf::2                       0                       # What write queue length does an incoming req see
system.mem_ctrls.wrQLenPdf::3                       0                       # What write queue length does an incoming req see
system.mem_ctrls.wrQLenPdf::4                       0                       # What write queue length does an incoming req see
system.mem_ctrls.wrQLenPdf::5                       0                       # What write queue length does an incoming req see
system.mem_ctrls.wrQLenPdf::6                       0                       # What write queue length does an incoming req see
system.mem_ctrls.wrQLenPdf::7                       0                       # What write queue length does an incoming req see
system.mem_ctrls.wrQLenPdf::8                       0                       # What write queue length does an incoming req see
system.mem_ctrls.wrQLenPdf::9                       0                       # What write queue length does an incoming req see
system.mem_ctrls.wrQLenPdf::10                      0                       # What write queue length does an incoming req see
system.mem_ctrls.wrQLenPdf::11                      0                       # What write queue length does an incoming req see
system.mem_ctrls.wrQLenPdf::12                      0                       # What write queue length does an incoming req see
system.mem_ctrls.wrQLenPdf::13                      0                       # What write queue length does an incoming req see
system.mem_ctrls.wrQLenPdf::14                      0                       # What write queue length does an incoming req see
system.mem_ctrls.wrQLenPdf::15                    561                       # What write queue length does an incoming req see
system.mem_ctrls.wrQLenPdf::16                    586                       # What write queue length does an incoming req see
system.mem_ctrls.wrQLenPdf::17                    927                       # What write queue length does an incoming req see
system.mem_ctrls.wrQLenPdf::18                    937                       # What write queue length does an incoming req see
system.mem_ctrls.wrQLenPdf::19                    937                       # What write queue length does an incoming req see
system.mem_ctrls.wrQLenPdf::20                    937                       # What write queue length does an incoming req see
system.mem_ctrls.wrQLenPdf::21                    937                       # What write queue length does an incoming req see
system.mem_ctrls.wrQLenPdf::22                    939                       # What write queue length does an incoming req see
system.mem_ctrls.wrQLenPdf::23                    939                       # What write queue length does an incoming req see
system.mem_ctrls.wrQLenPdf::24                    938                       # What write queue length does an incoming req see
system.mem_ctrls.wrQLenPdf::25                    940                       # What write queue length does an incoming req see
system.mem_ctrls.wrQLenPdf::26                    938                       # What write queue length does an incoming req see
system.mem_ctrls.wrQLenPdf::27                    940                       # What write queue length does an incoming req see
system.mem_ctrls.wrQLenPdf::28                    937                       # What write queue length does an incoming req see
system.mem_ctrls.wrQLenPdf::29                    942                       # What write queue length does an incoming req see
system.mem_ctrls.wrQLenPdf::30                    962                       # What write queue length does an incoming req see
system.mem_ctrls.wrQLenPdf::31                    941                       # What write queue length does an incoming req see
system.mem_ctrls.wrQLenPdf::32                    938                       # What write queue length does an incoming req see
system.mem_ctrls.wrQLenPdf::33                      1                       # What write queue length does an incoming req see
system.mem_ctrls.wrQLenPdf::34                      0                       # What write queue length does an incoming req see
system.mem_ctrls.wrQLenPdf::35                      0                       # What write queue length does an incoming req see
system.mem_ctrls.wrQLenPdf::36                      0                       # What write queue length does an incoming req see
system.mem_ctrls.wrQLenPdf::37                      0                       # What write queue length does an incoming req see
system.mem_ctrls.wrQLenPdf::38                      0                       # What write queue length does an incoming req see
system.mem_ctrls.wrQLenPdf::39                      0                       # What write queue length does an incoming req see
system.mem_ctrls.wrQLenPdf::40                      0                       # What write queue length does an incoming req see
system.mem_ctrls.wrQLenPdf::41                      0                       # What write queue length does an incoming req see
system.mem_ctrls.wrQLenPdf::42                      0                       # What write queue length does an incoming req see
system.mem_ctrls.wrQLenPdf::43                      0                       # What write queue length does an incoming req see
system.mem_ctrls.wrQLenPdf::44                      0                       # What write queue length does an incoming req see
system.mem_ctrls.wrQLenPdf::45                      0                       # What write queue length does an incoming req see
system.mem_ctrls.wrQLenPdf::46                      0                       # What write queue length does an incoming req see
system.mem_ctrls.wrQLenPdf::47                      0                       # What write queue length does an incoming req see
system.mem_ctrls.wrQLenPdf::48                      0                       # What write queue length does an incoming req see
system.mem_ctrls.wrQLenPdf::49                      0                       # What write queue length does an incoming req see
system.mem_ctrls.wrQLenPdf::50                      0                       # What write queue length does an incoming req see
system.mem_ctrls.wrQLenPdf::51                      0                       # What write queue length does an incoming req see
system.mem_ctrls.wrQLenPdf::52                      0                       # What write queue length does an incoming req see
system.mem_ctrls.wrQLenPdf::53                      0                       # What write queue length does an incoming req see
system.mem_ctrls.wrQLenPdf::54                      0                       # What write queue length does an incoming req see
system.mem_ctrls.wrQLenPdf::55                      0                       # What write queue length does an incoming req see
system.mem_ctrls.wrQLenPdf::56                      0                       # What write queue length does an incoming req see
system.mem_ctrls.wrQLenPdf::57                      0                       # What write queue length does an incoming req see
system.mem_ctrls.wrQLenPdf::58                      0                       # What write queue length does an incoming req see
system.mem_ctrls.wrQLenPdf::59                      0                       # What write queue length does an incoming req see
system.mem_ctrls.wrQLenPdf::60                      0                       # What write queue length does an incoming req see
system.mem_ctrls.wrQLenPdf::61                      0                       # What write queue length does an incoming req see
system.mem_ctrls.wrQLenPdf::62                      0                       # What write queue length does an incoming req see
system.mem_ctrls.wrQLenPdf::63                      0                       # What write queue length does an incoming req see
system.mem_ctrls.bytesPerActivate::samples        23403                       # Bytes accessed per row activation
system.mem_ctrls.bytesPerActivate::mean     90.023330                       # Bytes accessed per row activation
system.mem_ctrls.bytesPerActivate::gmean    80.953122                       # Bytes accessed per row activation
system.mem_ctrls.bytesPerActivate::stdev    52.774585                       # Bytes accessed per row activation
system.mem_ctrls.bytesPerActivate::64-127        17063     72.91%     72.91% # Bytes accessed per row activation
system.mem_ctrls.bytesPerActivate::128-191         4392     18.77%     91.68% # Bytes accessed per row activation
system.mem_ctrls.bytesPerActivate::192-255         1159      4.95%     96.63% # Bytes accessed per row activation
system.mem_ctrls.bytesPerActivate::256-319          522      2.23%     98.86% # Bytes accessed per row activation
system.mem_ctrls.bytesPerActivate::320-383          168      0.72%     99.58% # Bytes accessed per row activation
system.mem_ctrls.bytesPerActivate::384-447           58      0.25%     99.82% # Bytes accessed per row activation
system.mem_ctrls.bytesPerActivate::448-511           20      0.09%     99.91% # Bytes accessed per row activation
system.mem_ctrls.bytesPerActivate::512-575           12      0.05%     99.96% # Bytes accessed per row activation
system.mem_ctrls.bytesPerActivate::576-639            7      0.03%     99.99% # Bytes accessed per row activation
system.mem_ctrls.bytesPerActivate::640-703            2      0.01%    100.00% # Bytes accessed per row activation
system.mem_ctrls.bytesPerActivate::total        23403                       # Bytes accessed per row activation
system.mem_ctrls.rdPerTurnAround::samples          937                       # Reads before turning the bus around for writes
system.mem_ctrls.rdPerTurnAround::mean      17.869797                       # Reads before turning the bus around for writes
system.mem_ctrls.rdPerTurnAround::gmean     17.823625                       # Reads before turning the bus around for writes
system.mem_ctrls.rdPerTurnAround::stdev      1.284405                       # Reads before turning the bus around for writes
system.mem_ctrls.rdPerTurnAround::15                8      0.85%      0.85% # Reads before turning the bus around for writes
system.mem_ctrls.rdPerTurnAround::16              175     18.68%     19.53% # Reads before turning the bus around for writes
system.mem_ctrls.rdPerTurnAround::17              136     14.51%     34.04% # Reads before turning the bus around for writes
system.mem_ctrls.rdPerTurnAround::18              342     36.50%     70.54% # Reads before turning the bus around for writes
system.mem_ctrls.rdPerTurnAround::19              183     19.53%     90.07% # Reads before turning the bus around for writes
system.mem_ctrls.rdPerTurnAround::20               75      8.00%     98.08% # Reads before turning the bus around for writes
system.mem_ctrls.rdPerTurnAround::21               17      1.81%     99.89% # Reads before turning the bus around for writes
system.mem_ctrls.rdPerTurnAround::22                1      0.11%    100.00% # Reads before turning the bus around for writes
system.mem_ctrls.rdPerTurnAround::total           937                       # Reads before turning the bus around for writes
system.mem_ctrls.wrPerTurnAround::samples          937                       # Writes before turning the bus around for reads
system.mem_ctrls.wrPerTurnAround::mean      17.268943                       # Writes before turning the bus around for reads
system.mem_ctrls.wrPerTurnAround::gmean     17.238515                       # Writes before turning the bus around for reads
system.mem_ctrls.wrPerTurnAround::stdev      1.019168                       # Writes before turning the bus around for reads
system.mem_ctrls.wrPerTurnAround::16              351     37.46%     37.46% # Writes before turning the bus around for reads
system.mem_ctrls.wrPerTurnAround::17               24      2.56%     40.02% # Writes before turning the bus around for reads
system.mem_ctrls.wrPerTurnAround::18              523     55.82%     95.84% # Writes before turning the bus around for reads
system.mem_ctrls.wrPerTurnAround::19               37      3.95%     99.79% # Writes before turning the bus around for reads
system.mem_ctrls.wrPerTurnAround::20                2      0.21%    100.00% # Writes before turning the bus around for reads
system.mem_ctrls.wrPerTurnAround::total           937                       # Writes before turning the bus around for reads
system.mem_ctrls.totQLat                    463273750                       # Total ticks spent queuing
system.mem_ctrls.totMemAccLat               777167500                       # Total ticks spent from burst creation until serviced by the DRAM
system.mem_ctrls.totBusLat                   83705000                       # Total ticks spent in databus transfers
system.mem_ctrls.avgQLat                     27673.00                       # Average queueing delay per DRAM burst
system.mem_ctrls.avgBusLat                    5000.00                       # Average bus latency per DRAM burst
system.mem_ctrls.avgMemAccLat                46423.00                       # Average memory access latency per DRAM burst
system.mem_ctrls.avgRdBW                        70.18                       # Average DRAM read bandwidth in MiByte/s
system.mem_ctrls.avgWrBW                        67.83                       # Average achieved write bandwidth in MiByte/s
system.mem_ctrls.avgRdBWSys                     70.18                       # Average system read bandwidth in MiByte/s
system.mem_ctrls.avgWrBWSys                     67.81                       # Average system write bandwidth in MiByte/s
system.mem_ctrls.peakBW                      12800.00                       # Theoretical peak bandwidth in MiByte/s
system.mem_ctrls.busUtil                         1.08                       # Data bus utilization in percentage
system.mem_ctrls.busUtilRead                     0.55                       # Data bus utilization in percentage for reads
system.mem_ctrls.busUtilWrite                    0.53                       # Data bus utilization in percentage for writes
system.mem_ctrls.avgRdQLen                       1.09                       # Average read queue length when enqueuing
system.mem_ctrls.avgWrQLen                      24.98                       # Average write queue length when enqueuing
system.mem_ctrls.readRowHits                     5892                       # Number of row buffer hits during reads
system.mem_ctrls.writeRowHits                    3625                       # Number of row buffer hits during writes
system.mem_ctrls.readRowHitRate                 35.20                       # Row buffer hit rate for reads
system.mem_ctrls.writeRowHitRate                22.41                       # Row buffer hit rate for writes
system.mem_ctrls.avgGap                     463861.00                       # Average gap between requests
system.mem_ctrls.pageHitRate                    28.91                       # Row buffer hit rate, read and write combined
system.mem_ctrls_0.actEnergy                 79096920                       # Energy for activate commands per rank (pJ)
system.mem_ctrls_0.preEnergy                 42037215                       # Energy for precharge commands per rank (pJ)
system.mem_ctrls_0.readEnergy                57626940                       # Energy for read commands per rank (pJ)
system.mem_ctrls_0.writeEnergy               40731660                       # Energy for write commands per rank (pJ)
system.mem_ctrls_0.refreshEnergy         1220060400.000000                       # Energy for refresh commands per rank (pJ)
system.mem_ctrls_0.actBackEnergy           1015398000                       # Energy for active background per rank (pJ)
system.mem_ctrls_0.preBackEnergy             32701920                       # Energy for precharge background per rank (pJ)
system.mem_ctrls_0.actPowerDownEnergy      4340337390                       # Energy for active power-down per rank (pJ)
system.mem_ctrls_0.prePowerDownEnergy      1239683040                       # Energy for precharge power-down per rank (pJ)
system.mem_ctrls_0.selfRefreshEnergy         80466600                       # Energy for self refresh per rank (pJ)
system.mem_ctrls_0.totalEnergy             8148380805                       # Total energy per rank (pJ)
system.mem_ctrls_0.averagePower            533.713050                       # Core power per rank (mW)
system.mem_ctrls_0.totalIdleTime          12954093500                       # Total Idle time Per DRAM Rank
system.mem_ctrls_0.memoryStateTime::IDLE     28123000                       # Time in different power states
system.mem_ctrls_0.memoryStateTime::REF     516571500                       # Time in different power states
system.mem_ctrls_0.memoryStateTime::SREF    208190250                       # Time in different power states
system.mem_ctrls_0.memoryStateTime::PRE_PDN   3228436250                       # Time in different power states
system.mem_ctrls_0.memoryStateTime::ACT    1768092000                       # Time in different power states
system.mem_ctrls_0.memoryStateTime::ACT_PDN   9517931125                       # Time in different power states
system.mem_ctrls_1.actEnergy                 88014780                       # Energy for activate commands per rank (pJ)
system.mem_ctrls_1.preEnergy                 46777170                       # Energy for precharge commands per rank (pJ)
system.mem_ctrls_1.readEnergy                61903800                       # Energy for read commands per rank (pJ)
system.mem_ctrls_1.writeEnergy               43733160                       # Energy for write commands per rank (pJ)
system.mem_ctrls_1.refreshEnergy         1217601840.000000                       # Energy for refresh commands per rank (pJ)
system.mem_ctrls_1.actBackEnergy            996769830                       # Energy for active background per rank (pJ)
system.mem_ctrls_1.preBackEnergy             30983040                       # Energy for precharge background per rank (pJ)
system.mem_ctrls_1.actPowerDownEnergy      4520165550                       # Energy for active power-down per rank (pJ)
system.mem_ctrls_1.prePowerDownEnergy      1146530880                       # Energy for precharge power-down per rank (pJ)
system.mem_ctrls_1.selfRefreshEnergy         44446740                       # Energy for self refresh per rank (pJ)
system.mem_ctrls_1.totalEnergy             8197106370                       # Total energy per rank (pJ)
system.mem_ctrls_1.averagePower            536.904540                       # Core power per rank (mW)
system.mem_ctrls_1.totalIdleTime          13000616250                       # Total Idle time Per DRAM Rank
system.mem_ctrls_1.memoryStateTime::IDLE     20932250                       # Time in different power states
system.mem_ctrls_1.memoryStateTime::REF     515294000                       # Time in different power states
system.mem_ctrls_1.memoryStateTime::SREF    101962500                       # Time in different power states
system.mem_ctrls_1.memoryStateTime::PRE_PDN   2985895500                       # Time in different power states
system.mem_ctrls_1.memoryStateTime::ACT    1730467000                       # Time in different power states
system.mem_ctrls_1.memoryStateTime::ACT_PDN   9912792875                       # Time in different power states
system.pwrStateResidencyTicks::UNDEFINED  15267344125                       # Cumulative time (in ticks) in various power states
system.cpu0.branchPred.lookups               13306774                       # Number of BP lookups
system.cpu0.branchPred.condPredicted         13306774                       # Number of conditional branches predicted
system.cpu0.branchPred.condIncorrect          1387873                       # Number of conditional branches incorrect
system.cpu0.branchPred.BTBLookups            11194838                       # Number of BTB lookups
system.cpu0.branchPred.BTBHits                      0                       # Number of BTB hits
system.cpu0.branchPred.BTBCorrect                   0                       # Number of correct BTB predictions (this stat may not work properly.
system.cpu0.branchPred.BTBHitPct             0.000000                       # BTB Hit Percentage
system.cpu0.branchPred.usedRAS                1089766                       # Number of times the RAS was used to get a target.
system.cpu0.branchPred.RASInCorrect            196415                       # Number of incorrect RAS predictions.
system.cpu0.branchPred.indirectLookups       11194838                       # Number of indirect predictor lookups.
system.cpu0.branchPred.indirectHits           2652931                       # Number of indirect target hits.
system.cpu0.branchPred.indirectMisses         8541907                       # Number of indirect misses.
system.cpu0.branchPredindirectMispredicted       912875                       # Number of mispredicted indirect branches.
system.cpu_voltage_domain.voltage                   1                       # Voltage in Volts
system.cpu_clk_domain.clock                       500                       # Clock period in ticks
system.cpu0.dtb.walker.pwrStateResidencyTicks::UNDEFINED  15267344125                       # Cumulative time (in ticks) in various power states
system.cpu0.dtb.rdAccesses                    7014175                       # TLB accesses on read requests
system.cpu0.dtb.wrAccesses                    2417889                       # TLB accesses on write requests
system.cpu0.dtb.rdMisses                        85244                       # TLB misses on read requests
system.cpu0.dtb.wrMisses                        17873                       # TLB misses on write requests
system.cpu0.apic_clk_domain.clock                8000                       # Clock period in ticks
system.cpu0.interrupts.pwrStateResidencyTicks::UNDEFINED  15267344125                       # Cumulative time (in ticks) in various power states
system.cpu0.itb.walker.pwrStateResidencyTicks::UNDEFINED  15267344125                       # Cumulative time (in ticks) in various power states
system.cpu0.itb.rdAccesses                          0                       # TLB accesses on read requests
system.cpu0.itb.wrAccesses                    6597843                       # TLB accesses on write requests
system.cpu0.itb.rdMisses                            0                       # TLB misses on read requests
system.cpu0.itb.wrMisses                         2210                       # TLB misses on write requests
system.cpu0.workload.numSyscalls                   19                       # Number of system calls
system.cpu0.pwrStateResidencyTicks::ON    15267344125                       # Cumulative time (in ticks) in various power states
system.cpu0.numCycles                        30534688                       # number of cpu cycles simulated
system.cpu0.numWorkItemsStarted                     0                       # number of work items this cpu started
system.cpu0.numWorkItemsCompleted                   0                       # number of work items this cpu completed
system.cpu0.fetch.icacheStallCycles           7444987                       # Number of cycles fetch is stalled on an Icache miss
system.cpu0.fetch.Insts                      56880707                       # Number of instructions fetch has processed
system.cpu0.fetch.Branches                   13306774                       # Number of branches that fetch encountered
system.cpu0.fetch.predictedBranches           3742697                       # Number of branches that fetch has predicted taken
system.cpu0.fetch.Cycles                     21686902                       # Number of cycles fetch has run and was not squashing or blocked
system.cpu0.fetch.SquashCycles                2777642                       # Number of cycles fetch has spent squashing
system.cpu0.fetch.TlbCycles                        20                       # Number of cycles fetch has spent waiting for tlb
system.cpu0.fetch.MiscStallCycles                 778                       # Number of cycles fetch has spent waiting on interrupts, or bad addresses, or out of MSHRs
system.cpu0.fetch.PendingTrapStallCycles        12540                       # Number of stall cycles due to pending traps
system.cpu0.fetch.CacheLines                  6595633                       # Number of cache lines fetched
system.cpu0.fetch.IcacheSquashes               321078                       # Number of outstanding Icache misses that were squashed
system.cpu0.fetch.rateDist::samples          30534048                       # Number of instructions fetched each cycle (Total)
system.cpu0.fetch.rateDist::mean             4.049199                       # Number of instructions fetched each cycle (Total)
system.cpu0.fetch.rateDist::stdev            3.670253                       # Number of instructions fetched each cycle (Total)
system.cpu0.fetch.rateDist::underflows              0      0.00%      0.00% # Number of instructions fetched each cycle (Total)
system.cpu0.fetch.rateDist::0                12054982     39.48%     39.48% # Number of instructions fetched each cycle (Total)
system.cpu0.fetch.rateDist::1                  526116      1.72%     41.20% # Number of instructions fetched each cycle (Total)
system.cpu0.fetch.rateDist::2                  897826      2.94%     44.14% # Number of instructions fetched each cycle (Total)
system.cpu0.fetch.rateDist::3                 1345108      4.41%     48.55% # Number of instructions fetched each cycle (Total)
system.cpu0.fetch.rateDist::4                  617961      2.02%     50.57% # Number of instructions fetched each cycle (Total)
system.cpu0.fetch.rateDist::5                 1145944      3.75%     54.33% # Number of instructions fetched each cycle (Total)
system.cpu0.fetch.rateDist::6                  989767      3.24%     57.57% # Number of instructions fetched each cycle (Total)
system.cpu0.fetch.rateDist::7                  509579      1.67%     59.24% # Number of instructions fetched each cycle (Total)
system.cpu0.fetch.rateDist::8                12446765     40.76%    100.00% # Number of instructions fetched each cycle (Total)
system.cpu0.fetch.rateDist::overflows               0      0.00%    100.00% # Number of instructions fetched each cycle (Total)
system.cpu0.fetch.rateDist::min_value               0                       # Number of instructions fetched each cycle (Total)
system.cpu0.fetch.rateDist::max_value               8                       # Number of instructions fetched each cycle (Total)
system.cpu0.fetch.rateDist::total            30534048                       # Number of instructions fetched each cycle (Total)
system.cpu0.fetch.branchRate                 0.435792                       # Number of branch fetches per cycle
system.cpu0.fetch.rate                       1.862823                       # Number of inst fetches per cycle
system.cpu0.decode.IdleCycles                 5627990                       # Number of cycles decode is idle
system.cpu0.decode.BlockedCycles              8232336                       # Number of cycles decode is blocked
system.cpu0.decode.RunCycles                 13853585                       # Number of cycles decode is running
system.cpu0.decode.UnblockCycles              1431316                       # Number of cycles decode is unblocking
system.cpu0.decode.SquashCycles               1388821                       # Number of cycles decode is squashing
system.cpu0.decode.DecodedInsts             110849394                       # Number of instructions handled by decode
system.cpu0.rename.SquashCycles               1388821                       # Number of cycles rename is squashing
system.cpu0.rename.IdleCycles                 6699451                       # Number of cycles rename is idle
system.cpu0.rename.BlockCycles                6864532                       # Number of cycles rename is blocking
system.cpu0.rename.serializeStallCycles        242368                       # count of cycles rename stalled for serializing inst
system.cpu0.rename.RunCycles                 14000802                       # Number of cycles rename is running
system.cpu0.rename.UnblockCycles              1338074                       # Number of cycles rename is unblocking
system.cpu0.rename.RenamedInsts             103629541                       # Number of instructions processed by rename
system.cpu0.rename.ROBFullEvents                32296                       # Number of times rename has blocked due to ROB full
system.cpu0.rename.IQFullEvents                686670                       # Number of times rename has blocked due to IQ full
system.cpu0.rename.LQFullEvents                   319                       # Number of times rename has blocked due to LQ full
system.cpu0.rename.SQFullEvents                422304                       # Number of times rename has blocked due to SQ full
system.cpu0.rename.RenamedOperands          116412578                       # Number of destination operands rename has renamed
system.cpu0.rename.RenameLookups            256934431                       # Number of register rename lookups that rename has made
system.cpu0.rename.int_rename_lookups       141320580                       # Number of integer rename lookups
system.cpu0.rename.fp_rename_lookups         19194130                       # Number of floating rename lookups
system.cpu0.rename.CommittedMaps             48493825                       # Number of HB maps that are committed
system.cpu0.rename.UndoneMaps                67918599                       # Number of HB maps that are undone due to squashing
system.cpu0.rename.serializingInsts             31458                       # count of serializing insts renamed
system.cpu0.rename.tempSerializingInsts         34016                       # count of temporary serializing insts renamed
system.cpu0.rename.skidInsts                  3178096                       # count of insts added to the skid buffer
system.cpu0.memDep0.insertedLoads             9562562                       # Number of loads inserted to the mem dependence unit.
system.cpu0.memDep0.insertedStores            3362498                       # Number of stores inserted to the mem dependence unit.
system.cpu0.memDep0.conflictingLoads           164954                       # Number of conflicting loads.
system.cpu0.memDep0.conflictingStores          175750                       # Number of conflicting stores.
system.cpu0.iq.iqInstsAdded                  89828047                       # Number of instructions added to the IQ (excludes non-spec)
system.cpu0.iq.iqNonSpecInstsAdded             221666                       # Number of non-speculative instructions added to the IQ
system.cpu0.iq.iqInstsIssued                 71499070                       # Number of instructions issued
system.cpu0.iq.iqSquashedInstsIssued           683393                       # Number of squashed instructions issued
system.cpu0.iq.iqSquashedInstsExamined       48143549                       # Number of squashed instructions iterated over during squash; mainly for profiling
system.cpu0.iq.iqSquashedOperandsExamined     69450711                       # Number of squashed operands that are examined and possibly removed from graph
system.cpu0.iq.iqSquashedNonSpecRemoved        221556                       # Number of squashed non-spec instructions that were removed
system.cpu0.iq.issued_per_cycle::samples     30534048                       # Number of insts issued each cycle
system.cpu0.iq.issued_per_cycle::mean        2.341618                       # Number of insts issued each cycle
system.cpu0.iq.issued_per_cycle::stdev       2.600530                       # Number of insts issued each cycle
system.cpu0.iq.issued_per_cycle::underflows            0      0.00%      0.00% # Number of insts issued each cycle
system.cpu0.iq.issued_per_cycle::0           13267131     43.45%     43.45% # Number of insts issued each cycle
system.cpu0.iq.issued_per_cycle::1            2208821      7.23%     50.68% # Number of insts issued each cycle
system.cpu0.iq.issued_per_cycle::2            2735819      8.96%     59.64% # Number of insts issued each cycle
system.cpu0.iq.issued_per_cycle::3            2317108      7.59%     67.23% # Number of insts issued each cycle
system.cpu0.iq.issued_per_cycle::4            2362828      7.74%     74.97% # Number of insts issued each cycle
system.cpu0.iq.issued_per_cycle::5            2253884      7.38%     82.35% # Number of insts issued each cycle
system.cpu0.iq.issued_per_cycle::6            2657307      8.70%     91.06% # Number of insts issued each cycle
system.cpu0.iq.issued_per_cycle::7            1646487      5.39%     96.45% # Number of insts issued each cycle
system.cpu0.iq.issued_per_cycle::8            1084663      3.55%    100.00% # Number of insts issued each cycle
system.cpu0.iq.issued_per_cycle::overflows            0      0.00%    100.00% # Number of insts issued each cycle
system.cpu0.iq.issued_per_cycle::min_value            0                       # Number of insts issued each cycle
system.cpu0.iq.issued_per_cycle::max_value            8                       # Number of insts issued each cycle
system.cpu0.iq.issued_per_cycle::total       30534048                       # Number of insts issued each cycle
system.cpu0.iq.fu_full::No_OpClass                  0      0.00%      0.00% # attempts to use FU when none available
system.cpu0.iq.fu_full::IntAlu                1458499     92.88%     92.88% # attempts to use FU when none available
system.cpu0.iq.fu_full::IntMult                     0      0.00%     92.88% # attempts to use FU when none available
system.cpu0.iq.fu_full::IntDiv                      0      0.00%     92.88% # attempts to use FU when none available
system.cpu0.iq.fu_full::FloatAdd                82763      5.27%     98.15% # attempts to use FU when none available
system.cpu0.iq.fu_full::FloatCmp                    0      0.00%     98.15% # attempts to use FU when none available
system.cpu0.iq.fu_full::FloatCvt                    0      0.00%     98.15% # attempts to use FU when none available
system.cpu0.iq.fu_full::FloatMult                   0      0.00%     98.15% # attempts to use FU when none available
system.cpu0.iq.fu_full::FloatMultAcc                0      0.00%     98.15% # attempts to use FU when none available
system.cpu0.iq.fu_full::FloatDiv                    0      0.00%     98.15% # attempts to use FU when none available
system.cpu0.iq.fu_full::FloatMisc                   0      0.00%     98.15% # attempts to use FU when none available
system.cpu0.iq.fu_full::FloatSqrt                   0      0.00%     98.15% # attempts to use FU when none available
system.cpu0.iq.fu_full::SimdAdd                     0      0.00%     98.15% # attempts to use FU when none available
system.cpu0.iq.fu_full::SimdAddAcc                  0      0.00%     98.15% # attempts to use FU when none available
system.cpu0.iq.fu_full::SimdAlu                     0      0.00%     98.15% # attempts to use FU when none available
system.cpu0.iq.fu_full::SimdCmp                     0      0.00%     98.15% # attempts to use FU when none available
system.cpu0.iq.fu_full::SimdCvt                     0      0.00%     98.15% # attempts to use FU when none available
system.cpu0.iq.fu_full::SimdMisc                    0      0.00%     98.15% # attempts to use FU when none available
system.cpu0.iq.fu_full::SimdMult                    0      0.00%     98.15% # attempts to use FU when none available
system.cpu0.iq.fu_full::SimdMultAcc                 0      0.00%     98.15% # attempts to use FU when none available
system.cpu0.iq.fu_full::SimdShift                   0      0.00%     98.15% # attempts to use FU when none available
system.cpu0.iq.fu_full::SimdShiftAcc                0      0.00%     98.15% # attempts to use FU when none available
system.cpu0.iq.fu_full::SimdSqrt                    0      0.00%     98.15% # attempts to use FU when none available
system.cpu0.iq.fu_full::SimdFloatAdd                0      0.00%     98.15% # attempts to use FU when none available
system.cpu0.iq.fu_full::SimdFloatAlu                0      0.00%     98.15% # attempts to use FU when none available
system.cpu0.iq.fu_full::SimdFloatCmp                0      0.00%     98.15% # attempts to use FU when none available
system.cpu0.iq.fu_full::SimdFloatCvt                0      0.00%     98.15% # attempts to use FU when none available
system.cpu0.iq.fu_full::SimdFloatDiv                0      0.00%     98.15% # attempts to use FU when none available
system.cpu0.iq.fu_full::SimdFloatMisc               0      0.00%     98.15% # attempts to use FU when none available
system.cpu0.iq.fu_full::SimdFloatMult               0      0.00%     98.15% # attempts to use FU when none available
system.cpu0.iq.fu_full::SimdFloatMultAcc            0      0.00%     98.15% # attempts to use FU when none available
system.cpu0.iq.fu_full::SimdFloatSqrt               0      0.00%     98.15% # attempts to use FU when none available
system.cpu0.iq.fu_full::MemRead                  4469      0.28%     98.43% # attempts to use FU when none available
system.cpu0.iq.fu_full::MemWrite                 1998      0.13%     98.56% # attempts to use FU when none available
system.cpu0.iq.fu_full::FloatMemRead            22219      1.41%     99.98% # attempts to use FU when none available
system.cpu0.iq.fu_full::FloatMemWrite             372      0.02%    100.00% # attempts to use FU when none available
system.cpu0.iq.fu_full::IprAccess                   0      0.00%    100.00% # attempts to use FU when none available
system.cpu0.iq.fu_full::InstPrefetch                0      0.00%    100.00% # attempts to use FU when none available
system.cpu0.iq.FU_type_0::No_OpClass          1824781      2.55%      2.55% # Type of FU issued
system.cpu0.iq.FU_type_0::IntAlu             54349151     76.01%     78.57% # Type of FU issued
system.cpu0.iq.FU_type_0::IntMult                2833      0.00%     78.57% # Type of FU issued
system.cpu0.iq.FU_type_0::IntDiv                77849      0.11%     78.68% # Type of FU issued
system.cpu0.iq.FU_type_0::FloatAdd            4963310      6.94%     85.62% # Type of FU issued
system.cpu0.iq.FU_type_0::FloatCmp                  0      0.00%     85.62% # Type of FU issued
system.cpu0.iq.FU_type_0::FloatCvt                  0      0.00%     85.62% # Type of FU issued
system.cpu0.iq.FU_type_0::FloatMult                 0      0.00%     85.62% # Type of FU issued
system.cpu0.iq.FU_type_0::FloatMultAcc              0      0.00%     85.62% # Type of FU issued
system.cpu0.iq.FU_type_0::FloatDiv                  0      0.00%     85.62% # Type of FU issued
system.cpu0.iq.FU_type_0::FloatMisc                 0      0.00%     85.62% # Type of FU issued
system.cpu0.iq.FU_type_0::FloatSqrt                 0      0.00%     85.62% # Type of FU issued
system.cpu0.iq.FU_type_0::SimdAdd                   0      0.00%     85.62% # Type of FU issued
system.cpu0.iq.FU_type_0::SimdAddAcc                0      0.00%     85.62% # Type of FU issued
system.cpu0.iq.FU_type_0::SimdAlu                   0      0.00%     85.62% # Type of FU issued
system.cpu0.iq.FU_type_0::SimdCmp                   0      0.00%     85.62% # Type of FU issued
system.cpu0.iq.FU_type_0::SimdCvt                   0      0.00%     85.62% # Type of FU issued
system.cpu0.iq.FU_type_0::SimdMisc                  0      0.00%     85.62% # Type of FU issued
system.cpu0.iq.FU_type_0::SimdMult                  0      0.00%     85.62% # Type of FU issued
system.cpu0.iq.FU_type_0::SimdMultAcc               0      0.00%     85.62% # Type of FU issued
system.cpu0.iq.FU_type_0::SimdShift                 0      0.00%     85.62% # Type of FU issued
system.cpu0.iq.FU_type_0::SimdShiftAcc              0      0.00%     85.62% # Type of FU issued
system.cpu0.iq.FU_type_0::SimdSqrt                  0      0.00%     85.62% # Type of FU issued
system.cpu0.iq.FU_type_0::SimdFloatAdd              0      0.00%     85.62% # Type of FU issued
system.cpu0.iq.FU_type_0::SimdFloatAlu              0      0.00%     85.62% # Type of FU issued
system.cpu0.iq.FU_type_0::SimdFloatCmp              0      0.00%     85.62% # Type of FU issued
system.cpu0.iq.FU_type_0::SimdFloatCvt              0      0.00%     85.62% # Type of FU issued
system.cpu0.iq.FU_type_0::SimdFloatDiv              0      0.00%     85.62% # Type of FU issued
system.cpu0.iq.FU_type_0::SimdFloatMisc             0      0.00%     85.62% # Type of FU issued
system.cpu0.iq.FU_type_0::SimdFloatMult             0      0.00%     85.62% # Type of FU issued
system.cpu0.iq.FU_type_0::SimdFloatMultAcc            0      0.00%     85.62% # Type of FU issued
system.cpu0.iq.FU_type_0::SimdFloatSqrt             0      0.00%     85.62% # Type of FU issued
system.cpu0.iq.FU_type_0::MemRead             5242292      7.33%     92.95% # Type of FU issued
system.cpu0.iq.FU_type_0::MemWrite            2629993      3.68%     96.63% # Type of FU issued
system.cpu0.iq.FU_type_0::FloatMemRead        2407758      3.37%    100.00% # Type of FU issued
system.cpu0.iq.FU_type_0::FloatMemWrite          1103      0.00%    100.00% # Type of FU issued
system.cpu0.iq.FU_type_0::IprAccess                 0      0.00%    100.00% # Type of FU issued
system.cpu0.iq.FU_type_0::InstPrefetch              0      0.00%    100.00% # Type of FU issued
system.cpu0.iq.FU_type_0::total              71499070                       # Type of FU issued
system.cpu0.iq.rate                          2.341569                       # Inst issue rate
system.cpu0.iq.fu_busy_cnt                    1570320                       # FU busy when requested
system.cpu0.iq.fu_busy_rate                  0.021963                       # FU busy rate (busy events/executed inst)
system.cpu0.iq.int_inst_queue_reads         160638796                       # Number of integer instruction queue reads
system.cpu0.iq.int_inst_queue_writes        120348875                       # Number of integer instruction queue writes
system.cpu0.iq.int_inst_queue_wakeup_accesses     60479613                       # Number of integer instruction queue wakeup accesses
system.cpu0.iq.fp_inst_queue_reads           15147105                       # Number of floating instruction queue reads
system.cpu0.iq.fp_inst_queue_writes          17844654                       # Number of floating instruction queue writes
system.cpu0.iq.fp_inst_queue_wakeup_accesses      6727974                       # Number of floating instruction queue wakeup accesses
system.cpu0.iq.vec_inst_queue_reads                 0                       # Number of vector instruction queue reads
system.cpu0.iq.vec_inst_queue_writes                0                       # Number of vector instruction queue writes
system.cpu0.iq.vec_inst_queue_wakeup_accesses            0                       # Number of vector instruction queue wakeup accesses
system.cpu0.iq.int_alu_accesses              63663268                       # Number of integer alu accesses
system.cpu0.iq.fp_alu_accesses                7581341                       # Number of floating point alu accesses
system.cpu0.iq.vec_alu_accesses                     0                       # Number of vector alu accesses
system.cpu0.iew.lsq.thread0.forwLoads          224934                       # Number of loads that had data forwarded from stores
system.cpu0.iew.lsq.thread0.invAddrLoads            0                       # Number of loads ignored due to an invalid address
system.cpu0.iew.lsq.thread0.squashedLoads      5805976                       # Number of loads squashed
system.cpu0.iew.lsq.thread0.ignoredResponses         3872                       # Number of memory responses ignored because the instruction is squashed
system.cpu0.iew.lsq.thread0.memOrderViolation          301                       # Number of memory ordering violations
system.cpu0.iew.lsq.thread0.squashedStores      1632780                       # Number of stores squashed
system.cpu0.iew.lsq.thread0.invAddrSwpfs            0                       # Number of software prefetches ignored due to an invalid address
system.cpu0.iew.lsq.thread0.blockedLoads            0                       # Number of blocked loads due to partial load-store forwarding
system.cpu0.iew.lsq.thread0.rescheduledLoads         3584                       # Number of loads that were rescheduled
system.cpu0.iew.lsq.thread0.cacheBlocked           30                       # Number of times an access to memory failed due to the cache being blocked
system.cpu0.iew.iewIdleCycles                       0                       # Number of cycles IEW is idle
system.cpu0.iew.iewSquashCycles               1388821                       # Number of cycles IEW is squashing
system.cpu0.iew.iewBlockCycles                6186163                       # Number of cycles IEW is blocking
system.cpu0.iew.iewUnblockCycles                10566                       # Number of cycles IEW is unblocking
system.cpu0.iew.iewDispatchedInsts           90049713                       # Number of instructions dispatched to IQ
system.cpu0.iew.iewDispSquashedInsts            49440                       # Number of squashed instructions skipped by dispatch
system.cpu0.iew.iewDispLoadInsts              9562562                       # Number of dispatched load instructions
system.cpu0.iew.iewDispStoreInsts             3362498                       # Number of dispatched store instructions
system.cpu0.iew.iewDispNonSpecInsts             90596                       # Number of dispatched non-speculative instructions
system.cpu0.iew.iewIQFullEvents                  4424                       # Number of times the IQ has become full, causing a stall
system.cpu0.iew.iewLSQFullEvents                 4495                       # Number of times the LSQ has become full, causing a stall
system.cpu0.iew.memOrderViolationEvents           301                       # Number of memory order violations
system.cpu0.iew.predictedTakenIncorrect        421467                       # Number of branches that were predicted taken incorrectly
system.cpu0.iew.predictedNotTakenIncorrect      1323975                       # Number of branches that were predicted not taken incorrectly
system.cpu0.iew.branchMispredicts             1745442                       # Number of branch mispredicts detected at execute
system.cpu0.iew.iewExecutedInsts             68407029                       # Number of executed instructions
system.cpu0.iew.iewExecLoadInsts              6979111                       # Number of load instructions executed
system.cpu0.iew.iewExecSquashedInsts          3092041                       # Number of squashed instructions skipped in execute
system.cpu0.iew.exec_swp                            0                       # number of swp insts executed
system.cpu0.iew.exec_nop                            0                       # number of nop insts executed
system.cpu0.iew.exec_refs                     9396393                       # number of memory reference insts executed
system.cpu0.iew.exec_branches                 6293427                       # Number of branches executed
system.cpu0.iew.exec_stores                   2417282                       # Number of stores executed
system.cpu0.iew.exec_rate                    2.240305                       # Inst execution rate
system.cpu0.iew.wb_sent                      67770536                       # cumulative count of insts sent to commit
system.cpu0.iew.wb_count                     67207587                       # cumulative count of insts written-back
system.cpu0.iew.wb_producers                 49694283                       # num instructions producing a value
system.cpu0.iew.wb_consumers                 88205244                       # num instructions consuming a value
system.cpu0.iew.wb_rate                      2.201024                       # insts written-back per cycle
system.cpu0.iew.wb_fanout                    0.563394                       # average fanout of values written-back
system.cpu0.commit.commitSquashedInsts       48143720                       # The number of squashed insts skipped by commit
system.cpu0.commit.commitNonSpecStalls            109                       # The number of times commit has been forced to stall to communicate backwards
system.cpu0.commit.branchMispredicts          1388656                       # The number of times a branch was mispredicted
system.cpu0.commit.committed_per_cycle::samples     23219372                       # Number of insts commited each cycle
system.cpu0.commit.committed_per_cycle::mean     1.804787                       # Number of insts commited each cycle
system.cpu0.commit.committed_per_cycle::stdev     2.421483                       # Number of insts commited each cycle
system.cpu0.commit.committed_per_cycle::underflows            0      0.00%      0.00% # Number of insts commited each cycle
system.cpu0.commit.committed_per_cycle::0     10710718     46.13%     46.13% # Number of insts commited each cycle
system.cpu0.commit.committed_per_cycle::1      3024558     13.03%     59.15% # Number of insts commited each cycle
system.cpu0.commit.committed_per_cycle::2      3408603     14.68%     73.83% # Number of insts commited each cycle
system.cpu0.commit.committed_per_cycle::3      1871769      8.06%     81.90% # Number of insts commited each cycle
system.cpu0.commit.committed_per_cycle::4       974314      4.20%     86.09% # Number of insts commited each cycle
system.cpu0.commit.committed_per_cycle::5       766968      3.30%     89.39% # Number of insts commited each cycle
system.cpu0.commit.committed_per_cycle::6       327935      1.41%     90.81% # Number of insts commited each cycle
system.cpu0.commit.committed_per_cycle::7       326805      1.41%     92.21% # Number of insts commited each cycle
system.cpu0.commit.committed_per_cycle::8      1807702      7.79%    100.00% # Number of insts commited each cycle
system.cpu0.commit.committed_per_cycle::overflows            0      0.00%    100.00% # Number of insts commited each cycle
system.cpu0.commit.committed_per_cycle::min_value            0                       # Number of insts commited each cycle
system.cpu0.commit.committed_per_cycle::max_value            8                       # Number of insts commited each cycle
system.cpu0.commit.committed_per_cycle::total     23219372                       # Number of insts commited each cycle
system.cpu0.commit.committedInsts            19084607                       # Number of instructions committed
system.cpu0.commit.committedOps              41906028                       # Number of ops (including micro ops) committed
system.cpu0.commit.swp_count                        0                       # Number of s/w prefetches committed
system.cpu0.commit.refs                       5486281                       # Number of memory references committed
system.cpu0.commit.loads                      3756578                       # Number of loads committed
system.cpu0.commit.membars                         60                       # Number of memory barriers committed
system.cpu0.commit.branches                   4380156                       # Number of branches committed
system.cpu0.commit.vec_insts                        0                       # Number of committed Vector instructions.
system.cpu0.commit.fp_insts                   3112250                       # Number of committed floating point instructions.
system.cpu0.commit.int_insts                 39241332                       # Number of committed integer instructions.
system.cpu0.commit.function_calls              378987                       # Number of function calls committed.
system.cpu0.commit.op_class_0::No_OpClass       706789      1.69%      1.69% # Class of committed instruction
system.cpu0.commit.op_class_0::IntAlu        33312265     79.49%     81.18% # Class of committed instruction
system.cpu0.commit.op_class_0::IntMult           1040      0.00%     81.18% # Class of committed instruction
system.cpu0.commit.op_class_0::IntDiv           50875      0.12%     81.30% # Class of committed instruction
system.cpu0.commit.op_class_0::FloatAdd       2348778      5.60%     86.91% # Class of committed instruction
system.cpu0.commit.op_class_0::FloatCmp             0      0.00%     86.91% # Class of committed instruction
system.cpu0.commit.op_class_0::FloatCvt             0      0.00%     86.91% # Class of committed instruction
system.cpu0.commit.op_class_0::FloatMult            0      0.00%     86.91% # Class of committed instruction
system.cpu0.commit.op_class_0::FloatMultAcc            0      0.00%     86.91% # Class of committed instruction
system.cpu0.commit.op_class_0::FloatDiv             0      0.00%     86.91% # Class of committed instruction
system.cpu0.commit.op_class_0::FloatMisc            0      0.00%     86.91% # Class of committed instruction
system.cpu0.commit.op_class_0::FloatSqrt            0      0.00%     86.91% # Class of committed instruction
system.cpu0.commit.op_class_0::SimdAdd              0      0.00%     86.91% # Class of committed instruction
system.cpu0.commit.op_class_0::SimdAddAcc            0      0.00%     86.91% # Class of committed instruction
system.cpu0.commit.op_class_0::SimdAlu              0      0.00%     86.91% # Class of committed instruction
system.cpu0.commit.op_class_0::SimdCmp              0      0.00%     86.91% # Class of committed instruction
system.cpu0.commit.op_class_0::SimdCvt              0      0.00%     86.91% # Class of committed instruction
system.cpu0.commit.op_class_0::SimdMisc             0      0.00%     86.91% # Class of committed instruction
system.cpu0.commit.op_class_0::SimdMult             0      0.00%     86.91% # Class of committed instruction
system.cpu0.commit.op_class_0::SimdMultAcc            0      0.00%     86.91% # Class of committed instruction
system.cpu0.commit.op_class_0::SimdShift            0      0.00%     86.91% # Class of committed instruction
system.cpu0.commit.op_class_0::SimdShiftAcc            0      0.00%     86.91% # Class of committed instruction
system.cpu0.commit.op_class_0::SimdSqrt             0      0.00%     86.91% # Class of committed instruction
system.cpu0.commit.op_class_0::SimdFloatAdd            0      0.00%     86.91% # Class of committed instruction
system.cpu0.commit.op_class_0::SimdFloatAlu            0      0.00%     86.91% # Class of committed instruction
system.cpu0.commit.op_class_0::SimdFloatCmp            0      0.00%     86.91% # Class of committed instruction
system.cpu0.commit.op_class_0::SimdFloatCvt            0      0.00%     86.91% # Class of committed instruction
system.cpu0.commit.op_class_0::SimdFloatDiv            0      0.00%     86.91% # Class of committed instruction
system.cpu0.commit.op_class_0::SimdFloatMisc            0      0.00%     86.91% # Class of committed instruction
system.cpu0.commit.op_class_0::SimdFloatMult            0      0.00%     86.91% # Class of committed instruction
system.cpu0.commit.op_class_0::SimdFloatMultAcc            0      0.00%     86.91% # Class of committed instruction
system.cpu0.commit.op_class_0::SimdFloatSqrt            0      0.00%     86.91% # Class of committed instruction
system.cpu0.commit.op_class_0::MemRead        3004718      7.17%     94.08% # Class of committed instruction
system.cpu0.commit.op_class_0::MemWrite       1729703      4.13%     98.21% # Class of committed instruction
system.cpu0.commit.op_class_0::FloatMemRead       751860      1.79%    100.00% # Class of committed instruction
system.cpu0.commit.op_class_0::FloatMemWrite            0      0.00%    100.00% # Class of committed instruction
system.cpu0.commit.op_class_0::IprAccess            0      0.00%    100.00% # Class of committed instruction
system.cpu0.commit.op_class_0::InstPrefetch            0      0.00%    100.00% # Class of committed instruction
system.cpu0.commit.op_class_0::total         41906028                       # Class of committed instruction
system.cpu0.commit.bw_lim_events              1807702                       # number cycles where commit BW limit reached
system.cpu0.rob.rob_reads                   111461418                       # The number of ROB reads
system.cpu0.rob.rob_writes                  187552623                       # The number of ROB writes
system.cpu0.timesIdled                             81                       # Number of times that the entire CPU went into an idle state and unscheduled itself
system.cpu0.idleCycles                            640                       # Total number of cycles that the CPU has spent unscheduled due to idling
system.cpu0.committedInsts                   19084607                       # Number of Instructions Simulated
system.cpu0.committedOps                     41906028                       # Number of Ops (including micro ops) Simulated
system.cpu0.cpi                              1.599964                       # CPI: Cycles Per Instruction
system.cpu0.cpi_total                        1.599964                       # CPI: Total CPI of All Threads
system.cpu0.ipc                              0.625014                       # IPC: Instructions Per Cycle
system.cpu0.ipc_total                        0.625014                       # IPC: Total IPC of All Threads
system.cpu0.int_regfile_reads                87656622                       # number of integer regfile reads
system.cpu0.int_regfile_writes               51676907                       # number of integer regfile writes
system.cpu0.fp_regfile_reads                 10636881                       # number of floating regfile reads
system.cpu0.fp_regfile_writes                 6337737                       # number of floating regfile writes
system.cpu0.cc_regfile_reads                 36281366                       # number of cc regfile reads
system.cpu0.cc_regfile_writes                18033423                       # number of cc regfile writes
system.cpu0.misc_regfile_reads               22279196                       # number of misc regfile reads
system.cpu0.dcache.tags.pwrStateResidencyTicks::UNDEFINED  15267344125                       # Cumulative time (in ticks) in various power states
system.cpu0.dcache.tags.replacements            20946                       # number of replacements
system.cpu0.dcache.tags.tagsinuse                1024                       # Cycle average of tags in use
system.cpu0.dcache.tags.total_refs             511136                       # Total number of references to valid blocks.
system.cpu0.dcache.tags.sampled_refs            20946                       # Sample count of references to valid blocks.
system.cpu0.dcache.tags.avg_refs            24.402559                       # Average number of references to valid blocks.
system.cpu0.dcache.tags.warmup_cycle                0                       # Cycle when the warmup percentage was hit.
system.cpu0.dcache.tags.occ_blocks::cpu0.data         1024                       # Average occupied blocks per requestor
system.cpu0.dcache.tags.occ_percent::cpu0.data            1                       # Average percentage of cache occupancy
system.cpu0.dcache.tags.occ_percent::total            1                       # Average percentage of cache occupancy
system.cpu0.dcache.tags.occ_task_id_blocks::1024         1024                       # Occupied blocks per task id
system.cpu0.dcache.tags.age_task_id_blocks_1024::0           12                       # Occupied blocks per task id
system.cpu0.dcache.tags.age_task_id_blocks_1024::1          131                       # Occupied blocks per task id
system.cpu0.dcache.tags.age_task_id_blocks_1024::2          761                       # Occupied blocks per task id
system.cpu0.dcache.tags.age_task_id_blocks_1024::3           65                       # Occupied blocks per task id
system.cpu0.dcache.tags.age_task_id_blocks_1024::4           55                       # Occupied blocks per task id
system.cpu0.dcache.tags.occ_task_id_percent::1024            1                       # Percentage of cache occupancy per task id
system.cpu0.dcache.tags.tag_accesses         33768658                       # Number of tag accesses
system.cpu0.dcache.tags.data_accesses        33768658                       # Number of data accesses
system.cpu0.dcache.pwrStateResidencyTicks::UNDEFINED  15267344125                       # Cumulative time (in ticks) in various power states
system.cpu0.dcache.ReadReq_hits::cpu0.data      6680920                       # number of ReadReq hits
system.cpu0.dcache.ReadReq_hits::total        6680920                       # number of ReadReq hits
system.cpu0.dcache.WriteReq_hits::cpu0.data      1719137                       # number of WriteReq hits
system.cpu0.dcache.WriteReq_hits::total       1719137                       # number of WriteReq hits
system.cpu0.dcache.demand_hits::cpu0.data      8400057                       # number of demand (read+write) hits
system.cpu0.dcache.demand_hits::total         8400057                       # number of demand (read+write) hits
system.cpu0.dcache.overall_hits::cpu0.data      8400057                       # number of overall hits
system.cpu0.dcache.overall_hits::total        8400057                       # number of overall hits
system.cpu0.dcache.ReadReq_misses::cpu0.data        26143                       # number of ReadReq misses
system.cpu0.dcache.ReadReq_misses::total        26143                       # number of ReadReq misses
system.cpu0.dcache.WriteReq_misses::cpu0.data        10728                       # number of WriteReq misses
system.cpu0.dcache.WriteReq_misses::total        10728                       # number of WriteReq misses
system.cpu0.dcache.demand_misses::cpu0.data        36871                       # number of demand (read+write) misses
system.cpu0.dcache.demand_misses::total         36871                       # number of demand (read+write) misses
system.cpu0.dcache.overall_misses::cpu0.data        36871                       # number of overall misses
system.cpu0.dcache.overall_misses::total        36871                       # number of overall misses
system.cpu0.dcache.ReadReq_miss_latency::cpu0.data   1602283000                       # number of ReadReq miss cycles
system.cpu0.dcache.ReadReq_miss_latency::total   1602283000                       # number of ReadReq miss cycles
system.cpu0.dcache.WriteReq_miss_latency::cpu0.data    999206500                       # number of WriteReq miss cycles
system.cpu0.dcache.WriteReq_miss_latency::total    999206500                       # number of WriteReq miss cycles
system.cpu0.dcache.demand_miss_latency::cpu0.data   2601489500                       # number of demand (read+write) miss cycles
system.cpu0.dcache.demand_miss_latency::total   2601489500                       # number of demand (read+write) miss cycles
system.cpu0.dcache.overall_miss_latency::cpu0.data   2601489500                       # number of overall miss cycles
system.cpu0.dcache.overall_miss_latency::total   2601489500                       # number of overall miss cycles
system.cpu0.dcache.ReadReq_accesses::cpu0.data      6707063                       # number of ReadReq accesses(hits+misses)
system.cpu0.dcache.ReadReq_accesses::total      6707063                       # number of ReadReq accesses(hits+misses)
system.cpu0.dcache.WriteReq_accesses::cpu0.data      1729865                       # number of WriteReq accesses(hits+misses)
system.cpu0.dcache.WriteReq_accesses::total      1729865                       # number of WriteReq accesses(hits+misses)
system.cpu0.dcache.demand_accesses::cpu0.data      8436928                       # number of demand (read+write) accesses
system.cpu0.dcache.demand_accesses::total      8436928                       # number of demand (read+write) accesses
system.cpu0.dcache.overall_accesses::cpu0.data      8436928                       # number of overall (read+write) accesses
system.cpu0.dcache.overall_accesses::total      8436928                       # number of overall (read+write) accesses
system.cpu0.dcache.ReadReq_miss_rate::cpu0.data     0.003898                       # miss rate for ReadReq accesses
system.cpu0.dcache.ReadReq_miss_rate::total     0.003898                       # miss rate for ReadReq accesses
[...]
system.l2.ReadCleanReq_miss_rate::cpu0.inst     0.004128                       # miss rate for ReadCleanReq accesses
system.l2.ReadCleanReq_miss_rate::total      0.004128                       # miss rate for ReadCleanReq accesses
system.l2.ReadSharedReq_miss_rate::cpu0.data     0.631962                       # miss rate for ReadSharedReq accesses
system.l2.ReadSharedReq_miss_rate::total     0.631962                       # miss rate for ReadSharedReq accesses
system.l2.demand_miss_rate::cpu0.inst        0.004128                       # miss rate for demand accesses
system.l2.demand_miss_rate::cpu0.data        0.799017                       # miss rate for demand accesses
system.l2.demand_miss_rate::total            0.763871                       # miss rate for demand accesses
system.l2.overall_miss_rate::cpu0.inst       0.004128                       # miss rate for overall accesses
system.l2.overall_miss_rate::cpu0.data       0.799017                       # miss rate for overall accesses
system.l2.overall_miss_rate::total           0.763871                       # miss rate for overall accesses
system.l2.ReadExReq_avg_miss_latency::cpu0.data 93565.307568                       # average ReadExReq miss latency
system.l2.ReadExReq_avg_miss_latency::total 93565.307568                       # average ReadExReq miss latency
system.l2.ReadCleanReq_avg_miss_latency::cpu0.inst        98625                       # average ReadCleanReq miss latency
system.l2.ReadCleanReq_avg_miss_latency::total        98625                       # average ReadCleanReq miss latency
system.l2.ReadSharedReq_avg_miss_latency::cpu0.data 103516.197286                       # average ReadSharedReq miss latency
system.l2.ReadSharedReq_avg_miss_latency::total 103516.197286                       # average ReadSharedReq miss latency
system.l2.demand_avg_miss_latency::cpu0.inst        98625                       # average overall miss latency
system.l2.demand_avg_miss_latency::cpu0.data 97639.720380                       # average overall miss latency
system.l2.demand_avg_miss_latency::total 97639.955797                       # average overall miss latency
system.l2.overall_avg_miss_latency::cpu0.inst        98625                       # average overall miss latency
system.l2.overall_avg_miss_latency::cpu0.data 97639.720380                       # average overall miss latency
system.l2.overall_avg_miss_latency::total 97639.955797                       # average overall miss latency
system.l2.blocked_cycles::no_mshrs                  0                       # number of cycles access was blocked
system.l2.blocked_cycles::no_targets                0                       # number of cycles access was blocked
system.l2.blocked::no_mshrs                         0                       # number of cycles access was blocked
system.l2.blocked::no_targets                       0                       # number of cycles access was blocked
system.l2.avg_blocked_cycles::no_mshrs            nan                       # average number of cycles each access was blocked
system.l2.avg_blocked_cycles::no_targets          nan                       # average number of cycles each access was blocked
system.l2.writebacks::writebacks                16178                       # number of writebacks
system.l2.writebacks::total                     16178                       # number of writebacks
system.l2.ReadExReq_mshr_misses::cpu0.data         9884                       # number of ReadExReq MSHR misses
system.l2.ReadExReq_mshr_misses::total           9884                       # number of ReadExReq MSHR misses
system.l2.ReadCleanReq_mshr_misses::cpu0.inst            4                       # number of ReadCleanReq MSHR misses
system.l2.ReadCleanReq_mshr_misses::total            4                       # number of ReadCleanReq MSHR misses
system.l2.ReadSharedReq_mshr_misses::cpu0.data         6853                       # number of ReadSharedReq MSHR misses
system.l2.ReadSharedReq_mshr_misses::total         6853                       # number of ReadSharedReq MSHR misses
system.l2.demand_mshr_misses::cpu0.inst             4                       # number of demand (read+write) MSHR misses
system.l2.demand_mshr_misses::cpu0.data         16737                       # number of demand (read+write) MSHR misses
system.l2.demand_mshr_misses::total             16741                       # number of demand (read+write) MSHR misses
system.l2.overall_mshr_misses::cpu0.inst            4                       # number of overall MSHR misses
system.l2.overall_mshr_misses::cpu0.data        16737                       # number of overall MSHR misses
system.l2.overall_mshr_misses::total            16741                       # number of overall MSHR misses
system.l2.ReadExReq_mshr_miss_latency::cpu0.data    825959500                       # number of ReadExReq MSHR miss cycles
system.l2.ReadExReq_mshr_miss_latency::total    825959500                       # number of ReadExReq MSHR miss cycles
system.l2.ReadCleanReq_mshr_miss_latency::cpu0.inst       354500                       # number of ReadCleanReq MSHR miss cycles
system.l2.ReadCleanReq_mshr_miss_latency::total       354500                       # number of ReadCleanReq MSHR miss cycles
system.l2.ReadSharedReq_mshr_miss_latency::cpu0.data    640866500                       # number of ReadSharedReq MSHR miss cycles
system.l2.ReadSharedReq_mshr_miss_latency::total    640866500                       # number of ReadSharedReq MSHR miss cycles
system.l2.demand_mshr_miss_latency::cpu0.inst       354500                       # number of demand (read+write) MSHR miss cycles
system.l2.demand_mshr_miss_latency::cpu0.data   1466826000                       # number of demand (read+write) MSHR miss cycles
system.l2.demand_mshr_miss_latency::total   1467180500                       # number of demand (read+write) MSHR miss cycles
system.l2.overall_mshr_miss_latency::cpu0.inst       354500                       # number of overall MSHR miss cycles
system.l2.overall_mshr_miss_latency::cpu0.data   1466826000                       # number of overall MSHR miss cycles
system.l2.overall_mshr_miss_latency::total   1467180500                       # number of overall MSHR miss cycles
system.l2.ReadExReq_mshr_miss_rate::cpu0.data     0.978323                       # mshr miss rate for ReadExReq accesses
system.l2.ReadExReq_mshr_miss_rate::total     0.978323                       # mshr miss rate for ReadExReq accesses
system.l2.ReadCleanReq_mshr_miss_rate::cpu0.inst     0.004128                       # mshr miss rate for ReadCleanReq accesses
system.l2.ReadCleanReq_mshr_miss_rate::total     0.004128                       # mshr miss rate for ReadCleanReq accesses
system.l2.ReadSharedReq_mshr_miss_rate::cpu0.data     0.631962                       # mshr miss rate for ReadSharedReq accesses
system.l2.ReadSharedReq_mshr_miss_rate::total     0.631962                       # mshr miss rate for ReadSharedReq accesses
system.l2.demand_mshr_miss_rate::cpu0.inst     0.004128                       # mshr miss rate for demand accesses
system.l2.demand_mshr_miss_rate::cpu0.data     0.799017                       # mshr miss rate for demand accesses
system.l2.demand_mshr_miss_rate::total       0.763871                       # mshr miss rate for demand accesses
system.l2.overall_mshr_miss_rate::cpu0.inst     0.004128                       # mshr miss rate for overall accesses
system.l2.overall_mshr_miss_rate::cpu0.data     0.799017                       # mshr miss rate for overall accesses
system.l2.overall_mshr_miss_rate::total      0.763871                       # mshr miss rate for overall accesses
system.l2.ReadExReq_avg_mshr_miss_latency::cpu0.data 83565.307568                       # average ReadExReq mshr miss latency
system.l2.ReadExReq_avg_mshr_miss_latency::total 83565.307568                       # average ReadExReq mshr miss latency
system.l2.ReadCleanReq_avg_mshr_miss_latency::cpu0.inst        88625                       # average ReadCleanReq mshr miss latency
system.l2.ReadCleanReq_avg_mshr_miss_latency::total        88625                       # average ReadCleanReq mshr miss latency
system.l2.ReadSharedReq_avg_mshr_miss_latency::cpu0.data 93516.197286                       # average ReadSharedReq mshr miss latency
system.l2.ReadSharedReq_avg_mshr_miss_latency::total 93516.197286                       # average ReadSharedReq mshr miss latency
system.l2.demand_avg_mshr_miss_latency::cpu0.inst        88625                       # average overall mshr miss latency
system.l2.demand_avg_mshr_miss_latency::cpu0.data 87639.720380                       # average overall mshr miss latency
system.l2.demand_avg_mshr_miss_latency::total 87639.955797                       # average overall mshr miss latency
system.l2.overall_avg_mshr_miss_latency::cpu0.inst        88625                       # average overall mshr miss latency
system.l2.overall_avg_mshr_miss_latency::cpu0.data 87639.720380                       # average overall mshr miss latency
system.l2.overall_avg_mshr_miss_latency::total 87639.955797                       # average overall mshr miss latency
system.membus.snoop_filter.tot_requests         33482                       # Total number of requests made to the snoop filter.
system.membus.snoop_filter.hit_single_requests        16741                       # Number of requests hitting in the snoop filter with a single holder of the requested data.
system.membus.snoop_filter.hit_multi_requests            0                       # Number of requests hitting in the snoop filter with multiple (>1) holders of the requested data.
system.membus.snoop_filter.tot_snoops               0                       # Total number of snoops made to the snoop filter.
system.membus.snoop_filter.hit_single_snoops            0                       # Number of snoops hitting in the snoop filter with a single holder of the requested data.
system.membus.snoop_filter.hit_multi_snoops            0                       # Number of snoops hitting in the snoop filter with multiple (>1) holders of the requested data.
system.membus.pwrStateResidencyTicks::UNDEFINED  15267344125                       # Cumulative time (in ticks) in various power states
system.membus.trans_dist::ReadResp               6857                       # Transaction distribution
system.membus.trans_dist::WritebackDirty        16177                       # Transaction distribution
system.membus.trans_dist::CleanEvict              564                       # Transaction distribution
system.membus.trans_dist::ReadExReq              9884                       # Transaction distribution
system.membus.trans_dist::ReadExResp             9884                       # Transaction distribution
system.membus.trans_dist::ReadSharedReq          6857                       # Transaction distribution
system.membus.pkt_count_system.l2.mem_side::system.mem_ctrls.port        50223                       # Packet count per connected master and slave (bytes)
system.membus.pkt_count_system.l2.mem_side::total        50223                       # Packet count per connected master and slave (bytes)
system.membus.pkt_count::total                  50223                       # Packet count per connected master and slave (bytes)
system.membus.pkt_size_system.l2.mem_side::system.mem_ctrls.port      2106752                       # Cumulative packet size per connected master and slave (bytes)
system.membus.pkt_size_system.l2.mem_side::total      2106752                       # Cumulative packet size per connected master and slave (bytes)
system.membus.pkt_size::total                 2106752                       # Cumulative packet size per connected master and slave (bytes)
system.membus.snoops                                0                       # Total snoops (count)
system.membus.snoopTraffic                          0                       # Total snoop traffic (bytes)
system.membus.snoop_fanout::samples             16741                       # Request fanout histogram
system.membus.snoop_fanout::mean                    0                       # Request fanout histogram
system.membus.snoop_fanout::stdev                   0                       # Request fanout histogram
system.membus.snoop_fanout::underflows              0      0.00%      0.00% # Request fanout histogram
system.membus.snoop_fanout::0                   16741    100.00%    100.00% # Request fanout histogram
system.membus.snoop_fanout::1                       0      0.00%    100.00% # Request fanout histogram
system.membus.snoop_fanout::overflows               0      0.00%    100.00% # Request fanout histogram
system.membus.snoop_fanout::min_value               0                       # Request fanout histogram
system.membus.snoop_fanout::max_value               0                       # Request fanout histogram
system.membus.snoop_fanout::total               16741                       # Request fanout histogram
system.membus.reqLayer8.occupancy           102190500                       # Layer occupancy (ticks)
system.membus.reqLayer8.utilization               0.7                       # Layer utilization (%)
system.membus.respLayer1.occupancy           90888500                       # Layer occupancy (ticks)
system.membus.respLayer1.utilization              0.6                       # Layer utilization (%)
system.tol2bus.snoop_filter.tot_requests        43863                       # Total number of requests made to the snoop filter.
system.tol2bus.snoop_filter.hit_single_requests        21912                       # Number of requests hitting in the snoop filter with a single holder of the requested data.
system.tol2bus.snoop_filter.hit_multi_requests           83                       # Number of requests hitting in the snoop filter with multiple (>1) holders of the requested data.
system.tol2bus.snoop_filter.tot_snoops              3                       # Total number of snoops made to the snoop filter.
system.tol2bus.snoop_filter.hit_single_snoops            3                       # Number of snoops hitting in the snoop filter with a single holder of the requested data.
system.tol2bus.snoop_filter.hit_multi_snoops            0                       # Number of snoops hitting in the snoop filter with multiple (>1) holders of the requested data.
system.tol2bus.pwrStateResidencyTicks::UNDEFINED  15267344125                       # Cumulative time (in ticks) in various power states
system.tol2bus.trans_dist::ReadResp             11828                       # Transaction distribution
system.tol2bus.trans_dist::WritebackDirty        34237                       # Transaction distribution
system.tol2bus.trans_dist::WritebackClean          969                       # Transaction distribution
system.tol2bus.trans_dist::CleanEvict            3454                       # Transaction distribution
system.tol2bus.trans_dist::UpgradeReq              16                       # Transaction distribution
system.tol2bus.trans_dist::UpgradeResp             16                       # Transaction distribution
system.tol2bus.trans_dist::ReadExReq            10103                       # Transaction distribution
system.tol2bus.trans_dist::ReadExResp           10103                       # Transaction distribution
system.tol2bus.trans_dist::ReadCleanReq           985                       # Transaction distribution
system.tol2bus.trans_dist::ReadSharedReq        10844                       # Transaction distribution
system.tol2bus.pkt_count_system.cpu0.icache.mem_side::system.l2.cpu_side         2923                       # Packet count per connected master and slave (bytes)
system.tol2bus.pkt_count_system.cpu0.dcache.mem_side::system.l2.cpu_side        62871                       # Packet count per connected master and slave (bytes)
system.tol2bus.pkt_count::total                 65794                       # Packet count per connected master and slave (bytes)
system.tol2bus.pkt_size_system.cpu0.icache.mem_side::system.l2.cpu_side       124032                       # Cumulative packet size per connected master and slave (bytes)
system.tol2bus.pkt_size_system.cpu0.dcache.mem_side::system.l2.cpu_side      2496320                       # Cumulative packet size per connected master and slave (bytes)
system.tol2bus.pkt_size::total                2620352                       # Cumulative packet size per connected master and slave (bytes)
system.tol2bus.snoops                           16761                       # Total snoops (count)
system.tol2bus.snoopTraffic                   1036416                       # Total snoop traffic (bytes)
system.tol2bus.snoop_fanout::samples            38693                       # Request fanout histogram
system.tol2bus.snoop_fanout::mean            0.002145                       # Request fanout histogram
system.tol2bus.snoop_fanout::stdev           0.046266                       # Request fanout histogram
system.tol2bus.snoop_fanout::underflows             0      0.00%      0.00% # Request fanout histogram
system.tol2bus.snoop_fanout::0                  38610     99.79%     99.79% # Request fanout histogram
system.tol2bus.snoop_fanout::1                     83      0.21%    100.00% # Request fanout histogram
system.tol2bus.snoop_fanout::2                      0      0.00%    100.00% # Request fanout histogram
system.tol2bus.snoop_fanout::3                      0      0.00%    100.00% # Request fanout histogram
system.tol2bus.snoop_fanout::4                      0      0.00%    100.00% # Request fanout histogram
system.tol2bus.snoop_fanout::5                      0      0.00%    100.00% # Request fanout histogram
system.tol2bus.snoop_fanout::6                      0      0.00%    100.00% # Request fanout histogram
system.tol2bus.snoop_fanout::7                      0      0.00%    100.00% # Request fanout histogram
system.tol2bus.snoop_fanout::8                      0      0.00%    100.00% # Request fanout histogram
system.tol2bus.snoop_fanout::9                      0      0.00%    100.00% # Request fanout histogram
system.tol2bus.snoop_fanout::10                     0      0.00%    100.00% # Request fanout histogram
system.tol2bus.snoop_fanout::11                     0      0.00%    100.00% # Request fanout histogram
system.tol2bus.snoop_fanout::12                     0      0.00%    100.00% # Request fanout histogram
system.tol2bus.snoop_fanout::13                     0      0.00%    100.00% # Request fanout histogram
system.tol2bus.snoop_fanout::14                     0      0.00%    100.00% # Request fanout histogram
system.tol2bus.snoop_fanout::15                     0      0.00%    100.00% # Request fanout histogram
system.tol2bus.snoop_fanout::16                     0      0.00%    100.00% # Request fanout histogram
system.tol2bus.snoop_fanout::overflows              0      0.00%    100.00% # Request fanout histogram
system.tol2bus.snoop_fanout::min_value              0                       # Request fanout histogram
system.tol2bus.snoop_fanout::max_value              1                       # Request fanout histogram
system.tol2bus.snoop_fanout::total              38693                       # Request fanout histogram
system.tol2bus.reqLayer0.occupancy           40959500                       # Layer occupancy (ticks)
system.tol2bus.reqLayer0.utilization              0.3                       # Layer utilization (%)
system.tol2bus.respLayer0.occupancy           1477500                       # Layer occupancy (ticks)
system.tol2bus.respLayer0.utilization             0.0                       # Layer utilization (%)
system.tol2bus.respLayer1.occupancy          31427000                       # Layer occupancy (ticks)
system.tol2bus.respLayer1.utilization             0.2                       # Layer utilization (%)

---------- End Simulation Statistics   ----------
