
---------- Begin Simulation Statistics ----------
sim_seconds                                  0.015267                       # Number of seconds simulated
sim_ticks                                 15267344125                       # Number of ticks simulated
final_tick                               5053490905375                       # Number of ticks from beginning of simulation (restored from checkpoints and never reset)
sim_freq                                 1000000000000                       # Frequency of simulated ticks
host_inst_rate                              120347624                       # Simulator instruction rate (inst/s)
host_op_rate                                223743241                       # Simulator op (including micro ops) rate (op/s)
host_tick_rate                              315291122                       # Simulator tick rate (ticks/s)
host_mem_usage                                2332536                       # Number of bytes of host memory used
host_seconds                                    48.42                       # Real time elapsed on the host
sim_insts                                  5827590827                       # Number of instructions simulated
sim_ops                                   10834318157                       # Number of ops (including micro ops) simulated
system.voltage_domain.voltage                       1                       # Voltage in Volts
system.clk_domain.clock                          1000                       # Clock period in ticks
system.mem_ctrls.pwrStateResidencyTicks::UNDEFINED  15267344125                       # Cumulative time (in ticks) in various power states
system.mem_ctrls.bytes_read::cpu0.data       11479552                       # Number of bytes read from this memory
system.mem_ctrls.bytes_read::total           11479552                       # Number of bytes read from this memory
system.mem_ctrls.bytes_written::writebacks        27008                       # Number of bytes written to this memory
system.mem_ctrls.bytes_written::total           27008                       # Number of bytes written to this memory
system.mem_ctrls.num_reads::cpu0.data          179368                       # Number of read requests responded to by this memory
system.mem_ctrls.num_reads::total              179368                       # Number of read requests responded to by this memory
system.mem_ctrls.num_writes::writebacks           422                       # Number of write requests responded to by this memory
system.mem_ctrls.num_writes::total                422                       # Number of write requests responded to by this memory
system.mem_ctrls.bw_read::cpu0.data         751902355                       # Total read bandwidth from this memory (bytes/s)
system.mem_ctrls.bw_read::total             751902355                       # Total read bandwidth from this memory (bytes/s)
system.mem_ctrls.bw_write::writebacks         1769004                       # Write bandwidth from this memory (bytes/s)
system.mem_ctrls.bw_write::total              1769004                       # Write bandwidth from this memory (bytes/s)
system.mem_ctrls.bw_total::writebacks         1769004                       # Total bandwidth to/from this memory (bytes/s)
system.mem_ctrls.bw_total::cpu0.data        751902355                       # Total bandwidth to/from this memory (bytes/s)
system.mem_ctrls.bw_total::total            753671359                       # Total bandwidth to/from this memory (bytes/s)
system.mem_ctrls.readReqs                      179367                       # Number of read requests accepted
system.mem_ctrls.writeReqs                        422                       # Number of write requests accepted
system.mem_ctrls.readBursts                    179367                       # Number of DRAM read bursts, including those serviced by the write queue
system.mem_ctrls.writeBursts                      422                       # Number of DRAM write bursts, including those merged in the write queue
system.mem_ctrls.bytesReadDRAM               11476544                       # Total number of bytes read from DRAM
system.mem_ctrls.bytesReadWrQ                    2944                       # Total number of bytes read from write queue
system.mem_ctrls.bytesWritten                   27648                       # Total number of bytes written to DRAM
system.mem_ctrls.bytesReadSys                11479488                       # Total read bytes from the system interface side
system.mem_ctrls.bytesWrittenSys                27008                       # Total written bytes from the system interface side
system.mem_ctrls.servicedByWrQ                     46                       # Number of DRAM read bursts serviced by the write queue
system.mem_ctrls.mergedWrBursts                     0                       # Number of DRAM write bursts merged with an existing one
system.mem_ctrls.neitherReadNorWriteReqs            0                       # Number of requests that are neither read nor write
system.mem_ctrls.perBankRdBursts::0             10895                       # Per bank write bursts
system.mem_ctrls.perBankRdBursts::1             11220                       # Per bank write bursts
system.mem_ctrls.perBankRdBursts::2             10999                       # Per bank write bursts
system.mem_ctrls.perBankRdBursts::3             11349                       # Per bank write bursts
system.mem_ctrls.perBankRdBursts::4             11826                       # Per bank write bursts
system.mem_ctrls.perBankRdBursts::5             11597                       # Per bank write bursts
system.mem_ctrls.perBankRdBursts::6             11617                       # Per bank write bursts
system.mem_ctrls.perBankRdBursts::7             11464                       # Per bank write bursts
system.mem_ctrls.perBankRdBursts::8             11103                       # Per bank write bursts
system.mem_ctrls.perBankRdBursts::9             11301                       # Per bank write bursts
system.mem_ctrls.perBankRdBursts::10            10790                       # Per bank write bursts
system.mem_ctrls.perBankRdBursts::11            10888                       # Per bank write bursts
system.mem_ctrls.perBankRdBursts::12            10980                       # Per bank write bursts
system.mem_ctrls.perBankRdBursts::13            11198                       # Per bank write bursts
system.mem_ctrls.perBankRdBursts::14            11129                       # Per bank write bursts
system.mem_ctrls.perBankRdBursts::15            10965                       # Per bank write bursts
system.mem_ctrls.perBankWrBursts::0                 0                       # Per bank write bursts
system.mem_ctrls.perBankWrBursts::1                 0                       # Per bank write bursts
system.mem_ctrls.perBankWrBursts::2                 1                       # Per bank write bursts
system.mem_ctrls.perBankWrBursts::3                91                       # Per bank write bursts
system.mem_ctrls.perBankWrBursts::4                44                       # Per bank write bursts
system.mem_ctrls.perBankWrBursts::5               128                       # Per bank write bursts
system.mem_ctrls.perBankWrBursts::6               113                       # Per bank write bursts
system.mem_ctrls.perBankWrBursts::7                 8                       # Per bank write bursts
system.mem_ctrls.perBankWrBursts::8                 0                       # Per bank write bursts
system.mem_ctrls.perBankWrBursts::9                 0                       # Per bank write bursts
system.mem_ctrls.perBankWrBursts::10                0                       # Per bank write bursts
system.mem_ctrls.perBankWrBursts::11                0                       # Per bank write bursts
system.mem_ctrls.perBankWrBursts::12               32                       # Per bank write bursts
system.mem_ctrls.perBankWrBursts::13                0                       # Per bank write bursts
system.mem_ctrls.perBankWrBursts::14               15                       # Per bank write bursts
system.mem_ctrls.perBankWrBursts::15                0                       # Per bank write bursts
system.mem_ctrls.numRdRetry                         0                       # Number of times read queue was full causing retry
system.mem_ctrls.numWrRetry                         0                       # Number of times write queue was full causing retry
system.mem_ctrls.totGap                   15267153500                       # Total gap between requests
system.mem_ctrls.readPktSize::0                     0                       # Read request sizes (log2)
system.mem_ctrls.readPktSize::1                     0                       # Read request sizes (log2)
system.mem_ctrls.readPktSize::2                     0                       # Read request sizes (log2)
system.mem_ctrls.readPktSize::3                     0                       # Read request sizes (log2)
system.mem_ctrls.readPktSize::4                     0                       # Read request sizes (log2)
system.mem_ctrls.readPktSize::5                     0                       # Read request sizes (log2)
system.mem_ctrls.readPktSize::6                179367                       # Read request sizes (log2)
system.mem_ctrls.writePktSize::0                    0                       # Write request sizes (log2)
system.mem_ctrls.writePktSize::1                    0                       # Write request sizes (log2)
system.mem_ctrls.writePktSize::2                    0                       # Write request sizes (log2)
system.mem_ctrls.writePktSize::3                    0                       # Write request sizes (log2)
system.mem_ctrls.writePktSize::4                    0                       # Write request sizes (log2)
system.mem_ctrls.writePktSize::5                    0                       # Write request sizes (log2)
system.mem_ctrls.writePktSize::6                  422                       # Write request sizes (log2)
system.mem_ctrls.rdQLenPdf::0                  138321                       # What read queue length does an incoming req see
system.mem_ctrls.rdQLenPdf::1                   38686                       # What read queue length does an incoming req see
system.mem_ctrls.rdQLenPdf::2                    2275                       # What read queue length does an incoming req see
system.mem_ctrls.rdQLenPdf::3                      39                       # What read queue length does an incoming req see
system.mem_ctrls.rdQLenPdf::4                       0                       # What read queue length does an incoming req see
system.mem_ctrls.rdQLenPdf::5                       0                       # What read queue length does an incoming req see
system.mem_ctrls.rdQLenPdf::6                       0                       # What read queue length does an incoming req see
system.mem_ctrls.rdQLenPdf::7                       0                       # What read queue length does an incoming req see
system.mem_ctrls.rdQLenPdf::8                       0                       # What read queue length does an incoming req see
system.mem_ctrls.rdQLenPdf::9                       0                       # What read queue length does an incoming req see
system.mem_ctrls.rdQLenPdf::10                      0                       # What read queue length does an incoming req see
system.mem_ctrls.rdQLenPdf::11                      0                       # What read queue length does an incoming req see
system.mem_ctrls.rdQLenPdf::12                      0                       # What read queue length does an incoming req see
system.mem_ctrls.rdQLenPdf::13                      0                       # What read queue length does an incoming req see
system.mem_ctrls.rdQLenPdf::14                      0                       # What read queue length does an incoming req see
system.mem_ctrls.rdQLenPdf::15                      0                       # What read queue length does an incoming req see
system.mem_ctrls.rdQLenPdf::16                      0                       # What read queue length does an incoming req see
system.mem_ctrls.rdQLenPdf::17                      0                       # What read queue length does an incoming req see
system.mem_ctrls.rdQLenPdf::18                      0                       # What read queue length does an incoming req see
system.mem_ctrls.rdQLenPdf::19                      0                       # What read queue length does an incoming req see
system.mem_ctrls.rdQLenPdf::20                      0                       # What read queue length does an incoming req see
system.mem_ctrls.rdQLenPdf::21                      0                       # What read queue length does an incoming req see
system.mem_ctrls.rdQLenPdf::22                      0                       # What read queue length does an incoming req see
system.mem_ctrls.rdQLenPdf::23                      0                       # What read queue length does an incoming req see
system.mem_ctrls.rdQLenPdf::24                      0                       # What read queue length does an incoming req see
system.mem_ctrls.rdQLenPdf::25                      0                       # What read queue length does an incoming req see
system.mem_ctrls.rdQLenPdf::26                      0                       # What read queue length does an incoming req see
system.mem_ctrls.rdQLenPdf::27                      0                       # What read queue length does an incoming req see
system.mem_ctrls.rdQLenPdf::28                      0                       # What read queue length does an incoming req see
system.mem_ctrls.rdQLenPdf::29                      0                       # What read queue length does an incoming req see
system.mem_ctrls.rdQLenPdf::30                      0                       # What read queue length does an incoming req see
system.mem_ctrls.rdQLenPdf::31                      0                       # What read queue length does an incoming req see
system.mem_ctrls.wrQLenPdf::0                       0                       # What write queue length does an incoming req see
system.mem_ctrls.wrQLenPdf::1                       0                       # What write queue length does an incoming req see
system.mem_ctrls.wrQLenPdf::2                       0                       # What write queue length does an incoming req see
system.mem_ctrls.wrQLenPdf::3                       0                       # What write queue length does an incoming req see
system.mem_ctrls.wrQLenPdf::4                       0                       # What write queue length does an incoming req see
system.mem_ctrls.wrQLenPdf::5                       0                       # What write queue length does an incoming req see
system.mem_ctrls.wrQLenPdf::6                       0                       # What write queue length does an incoming req see
system.mem_ctrls.wrQLenPdf::7                       0                       # What write queue length does an incoming req see
system.mem_ctrls.wrQLenPdf::8                       0                       # What write queue length does an incoming req see
system.mem_ctrls.wrQLenPdf::9                       0                       # What write queue length does an incoming req see
system.mem_ctrls.wrQLenPdf::10                      0                       # What write queue length does an incoming req see
system.mem_ctrls.wrQLenPdf::11                      0                       # What write queue length does an incoming req see
system.mem_ctrls.wrQLenPdf::12                      0                       # What write queue length does an incoming req see
system.mem_ctrls.wrQLenPdf::13                      0                       # What write queue length does an incoming req see
system.mem_ctrls.wrQLenPdf::14                      0                       # What write queue length does an incoming req see
system.mem_ctrls.wrQLenPdf::15                      0                       # What write queue length does an incoming req see
system.mem_ctrls.wrQLenPdf::16                      0                       # What write queue length does an incoming req see
system.mem_ctrls.wrQLenPdf::17                     27                       # What write queue length does an incoming req see
system.mem_ctrls.wrQLenPdf::18                     27                       # What write queue length does an incoming req see
system.mem_ctrls.wrQLenPdf::19                     27                       # What write queue length does an incoming req see
system.mem_ctrls.wrQLenPdf::20                     26                       # What write queue length does an incoming req see
system.mem_ctrls.wrQLenPdf::21                     26                       # What write queue length does an incoming req see
system.mem_ctrls.wrQLenPdf::22                     26                       # What write queue length does an incoming req see
system.mem_ctrls.wrQLenPdf::23                     26                       # What write queue length does an incoming req see
system.mem_ctrls.wrQLenPdf::24                     26                       # What write queue length does an incoming req see
system.mem_ctrls.wrQLenPdf::25                     26                       # What write queue length does an incoming req see
system.mem_ctrls.wrQLenPdf::26                     26                       # What write queue length does an incoming req see
system.mem_ctrls.wrQLenPdf::27                     26                       # What write queue length does an incoming req see
system.mem_ctrls.wrQLenPdf::28                     26                       # What write queue length does an incoming req see
system.mem_ctrls.wrQLenPdf::29                     26                       # What write queue length does an incoming req see
system.mem_ctrls.wrQLenPdf::30                     27                       # What write queue length does an incoming req see
system.mem_ctrls.wrQLenPdf::31                     27                       # What write queue length does an incoming req see
system.mem_ctrls.wrQLenPdf::32                     27                       # What write queue length does an incoming req see
system.mem_ctrls.wrQLenPdf::33                      0                       # What write queue length does an incoming req see
system.mem_ctrls.wrQLenPdf::34                      0                       # What write queue length does an incoming req see
system.mem_ctrls.wrQLenPdf::35                      0                       # What write queue length does an incoming req see
system.mem_ctrls.wrQLenPdf::36                      0                       # What write queue length does an incoming req see
system.mem_ctrls.wrQLenPdf::37                      0                       # What write queue length does an incoming req see
system.mem_ctrls.wrQLenPdf::38                      0                       # What write queue length does an incoming req see
system.mem_ctrls.wrQLenPdf::39                      0                       # What write queue length does an incoming req see
system.mem_ctrls.wrQLenPdf::40                      0                       # What write queue length does an incoming req see
system.mem_ctrls.wrQLenPdf::41                      0                       # What write queue length does an incoming req see
system.mem_ctrls.wrQLenPdf::42                      0                       # What write queue length does an incoming req see
system.mem_ctrls.wrQLenPdf::43                      0                       # What write queue length does an incoming req see
system.mem_ctrls.wrQLenPdf::44                      0                       # What write queue length does an incoming req see
system.mem_ctrls.wrQLenPdf::45                      0                       # What write queue length does an incoming req see
system.mem_ctrls.wrQLenPdf::46                      0                       # What write queue length does an incoming req see
system.mem_ctrls.wrQLenPdf::47                      0                       # What write queue length does an incoming req see
system.mem_ctrls.wrQLenPdf::48                      0                       # What write queue length does an incoming req see
system.mem_ctrls.wrQLenPdf::49                      0                       # What write queue length does an incoming req see
system.mem_ctrls.wrQLenPdf::50                      0                       # What write queue length does an incoming req see
system.mem_ctrls.wrQLenPdf::51                      0                       # What write queue length does an incoming req see
system.mem_ctrls.wrQLenPdf::52                      0                       # What write queue length does an incoming req see
system.mem_ctrls.wrQLenPdf::53                      0                       # What write queue length does an incoming req see
system.mem_ctrls.wrQLenPdf::54                      0                       # What write queue length does an incoming req see
system.mem_ctrls.wrQLenPdf::55                      0                       # What write queue length does an incoming req see
system.mem_ctrls.wrQLenPdf::56                      0                       # What write queue length does an incoming req see
system.mem_ctrls.wrQLenPdf::57                      0                       # What write queue length does an incoming req see
system.mem_ctrls.wrQLenPdf::58                      0                       # What write queue length does an incoming req see
system.mem_ctrls.wrQLenPdf::59                      0                       # What write queue length does an incoming req see
system.mem_ctrls.wrQLenPdf::60                      0                       # What write queue length does an incoming req see
system.mem_ctrls.wrQLenPdf::61                      0                       # What write queue length does an incoming req see
system.mem_ctrls.wrQLenPdf::62                      0                       # What write queue length does an incoming req see
system.mem_ctrls.wrQLenPdf::63                      0                       # What write queue length does an incoming req see
system.mem_ctrls.bytesPerActivate::samples        94774                       # Bytes accessed per row activation
system.mem_ctrls.bytesPerActivate::mean    121.397008                       # Bytes accessed per row activation
system.mem_ctrls.bytesPerActivate::gmean   104.699327                       # Bytes accessed per row activation
system.mem_ctrls.bytesPerActivate::stdev    73.146415                       # Bytes accessed per row activation
system.mem_ctrls.bytesPerActivate::0-127        45244     47.74%     47.74% # Bytes accessed per row activation
system.mem_ctrls.bytesPerActivate::128-255        40631     42.87%     90.61% # Bytes accessed per row activation
system.mem_ctrls.bytesPerActivate::256-383         7786      8.22%     98.83% # Bytes accessed per row activation
system.mem_ctrls.bytesPerActivate::384-511          970      1.02%     99.85% # Bytes accessed per row activation
system.mem_ctrls.bytesPerActivate::512-639          114      0.12%     99.97% # Bytes accessed per row activation
system.mem_ctrls.bytesPerActivate::640-767           17      0.02%     99.99% # Bytes accessed per row activation
system.mem_ctrls.bytesPerActivate::768-895            4      0.00%     99.99% # Bytes accessed per row activation
system.mem_ctrls.bytesPerActivate::896-1023            2      0.00%     99.99% # Bytes accessed per row activation
system.mem_ctrls.bytesPerActivate::1024-1151            6      0.01%    100.00% # Bytes accessed per row activation
system.mem_ctrls.bytesPerActivate::total        94774                       # Bytes accessed per row activation
system.mem_ctrls.rdPerTurnAround::samples           27                       # Reads before turning the bus around for writes
system.mem_ctrls.rdPerTurnAround::mean    6874.481481                       # Reads before turning the bus around for writes
system.mem_ctrls.rdPerTurnAround::gmean   6695.056051                       # Reads before turning the bus around for writes
system.mem_ctrls.rdPerTurnAround::stdev   1587.715324                       # Reads before turning the bus around for writes
system.mem_ctrls.rdPerTurnAround::3584-4095            1      3.70%      3.70% # Reads before turning the bus around for writes
system.mem_ctrls.rdPerTurnAround::4608-5119            4     14.81%     18.52% # Reads before turning the bus around for writes
system.mem_ctrls.rdPerTurnAround::5120-5631            1      3.70%     22.22% # Reads before turning the bus around for writes
system.mem_ctrls.rdPerTurnAround::5632-6143            2      7.41%     29.63% # Reads before turning the bus around for writes
system.mem_ctrls.rdPerTurnAround::6144-6655            4     14.81%     44.44% # Reads before turning the bus around for writes
system.mem_ctrls.rdPerTurnAround::6656-7167            4     14.81%     59.26% # Reads before turning the bus around for writes
system.mem_ctrls.rdPerTurnAround::7168-7679            4     14.81%     74.07% # Reads before turning the bus around for writes
system.mem_ctrls.rdPerTurnAround::7680-8191            1      3.70%     77.78% # Reads before turning the bus around for writes
system.mem_ctrls.rdPerTurnAround::8192-8703            3     11.11%     88.89% # Reads before turning the bus around for writes
system.mem_ctrls.rdPerTurnAround::8704-9215            1      3.70%     92.59% # Reads before turning the bus around for writes
system.mem_ctrls.rdPerTurnAround::9216-9727            1      3.70%     96.30% # Reads before turning the bus around for writes
system.mem_ctrls.rdPerTurnAround::10240-10751            1      3.70%    100.00% # Reads before turning the bus around for writes
system.mem_ctrls.rdPerTurnAround::total            27                       # Reads before turning the bus around for writes
system.mem_ctrls.wrPerTurnAround::samples           27                       # Writes before turning the bus around for reads
system.mem_ctrls.wrPerTurnAround::mean             16                       # Writes before turning the bus around for reads
system.mem_ctrls.wrPerTurnAround::gmean     16.000000                       # Writes before turning the bus around for reads
system.mem_ctrls.wrPerTurnAround::16               27    100.00%    100.00% # Writes before turning the bus around for reads
system.mem_ctrls.wrPerTurnAround::total            27                       # Writes before turning the bus around for reads
system.mem_ctrls.totQLat                   4486846500                       # Total ticks spent queuing
system.mem_ctrls.totMemAccLat              7849115250                       # Total ticks spent from burst creation until serviced by the DRAM
system.mem_ctrls.totBusLat                  896605000                       # Total ticks spent in databus transfers
system.mem_ctrls.avgQLat                     25021.31                       # Average queueing delay per DRAM burst
system.mem_ctrls.avgBusLat                    5000.00                       # Average bus latency per DRAM burst
system.mem_ctrls.avgMemAccLat                43771.31                       # Average memory access latency per DRAM burst
system.mem_ctrls.avgRdBW                       751.71                       # Average DRAM read bandwidth in MiByte/s
system.mem_ctrls.avgWrBW                         1.81                       # Average achieved write bandwidth in MiByte/s
system.mem_ctrls.avgRdBWSys                    751.90                       # Average system read bandwidth in MiByte/s
system.mem_ctrls.avgWrBWSys                      1.77                       # Average system write bandwidth in MiByte/s
system.mem_ctrls.peakBW                      12800.00                       # Theoretical peak bandwidth in MiByte/s
system.mem_ctrls.busUtil                         5.89                       # Data bus utilization in percentage
system.mem_ctrls.busUtilRead                     5.87                       # Data bus utilization in percentage for reads
system.mem_ctrls.busUtilWrite                    0.01                       # Data bus utilization in percentage for writes
system.mem_ctrls.avgRdQLen                       1.29                       # Average read queue length when enqueuing
system.mem_ctrls.avgWrQLen                      25.91                       # Average write queue length when enqueuing
system.mem_ctrls.readRowHits                    84627                       # Number of row buffer hits during reads
system.mem_ctrls.writeRowHits                     361                       # Number of row buffer hits during writes
system.mem_ctrls.readRowHitRate                 47.19                       # Row buffer hit rate for reads
system.mem_ctrls.writeRowHitRate                85.55                       # Row buffer hit rate for writes
system.mem_ctrls.avgGap                      84917.06                       # Average gap between requests
system.mem_ctrls.pageHitRate                    47.28                       # Row buffer hit rate, read and write combined
system.mem_ctrls_0.actEnergy                342541500                       # Energy for activate commands per rank (pJ)
system.mem_ctrls_0.preEnergy                182087895                       # Energy for precharge commands per rank (pJ)
system.mem_ctrls_0.readEnergy               649504380                       # Energy for read commands per rank (pJ)
system.mem_ctrls_0.writeEnergy                2009700                       # Energy for write commands per rank (pJ)
system.mem_ctrls_0.refreshEnergy         1207767600.000000                       # Energy for refresh commands per rank (pJ)
system.mem_ctrls_0.actBackEnergy           1570931970                       # Energy for active background per rank (pJ)
system.mem_ctrls_0.preBackEnergy             24873600                       # Energy for precharge background per rank (pJ)
system.mem_ctrls_0.actPowerDownEnergy      5175443820                       # Energy for active power-down per rank (pJ)
system.mem_ctrls_0.prePowerDownEnergy       155912640                       # Energy for precharge power-down per rank (pJ)
system.mem_ctrls_0.selfRefreshEnergy     2656260.000000                       # Energy for self refresh per rank (pJ)
system.mem_ctrls_0.totalEnergy             9313838955                       # Total energy per rank (pJ)
system.mem_ctrls_0.averagePower            610.049716                       # Core power per rank (mW)
system.mem_ctrls_0.totalIdleTime          11757501750                       # Total Idle time Per DRAM Rank
system.mem_ctrls_0.memoryStateTime::IDLE     10626000                       # Time in different power states
system.mem_ctrls_0.memoryStateTime::REF     510936000                       # Time in different power states
system.mem_ctrls_0.memoryStateTime::SREF      1619000                       # Time in different power states
system.mem_ctrls_0.memoryStateTime::PRE_PDN    406008750                       # Time in different power states
system.mem_ctrls_0.memoryStateTime::ACT    2988059250                       # Time in different power states
system.mem_ctrls_0.memoryStateTime::ACT_PDN  11350095125                       # Time in different power states
system.mem_ctrls_1.actEnergy                334080600                       # Energy for activate commands per rank (pJ)
system.mem_ctrls_1.preEnergy                177579435                       # Energy for precharge commands per rank (pJ)
system.mem_ctrls_1.readEnergy               630847560                       # Energy for read commands per rank (pJ)
system.mem_ctrls_1.writeEnergy                 245340                       # Energy for write commands per rank (pJ)
system.mem_ctrls_1.refreshEnergy         1207767600.000000                       # Energy for refresh commands per rank (pJ)
system.mem_ctrls_1.actBackEnergy           1534366470                       # Energy for active background per rank (pJ)
system.mem_ctrls_1.preBackEnergy             25369920                       # Energy for precharge background per rank (pJ)
system.mem_ctrls_1.actPowerDownEnergy      5192239440                       # Energy for active power-down per rank (pJ)
system.mem_ctrls_1.prePowerDownEnergy       163648320                       # Energy for precharge power-down per rank (pJ)
system.mem_ctrls_1.selfRefreshEnergy          9573180                       # Energy for self refresh per rank (pJ)
system.mem_ctrls_1.totalEnergy             9275717865                       # Total energy per rank (pJ)
system.mem_ctrls_1.averagePower            607.552813                       # Core power per rank (mW)
system.mem_ctrls_1.totalIdleTime          11834889750                       # Total Idle time Per DRAM Rank
system.mem_ctrls_1.memoryStateTime::IDLE     12049500                       # Time in different power states
system.mem_ctrls_1.memoryStateTime::REF     510942000                       # Time in different power states
system.mem_ctrls_1.memoryStateTime::SREF     23782000                       # Time in different power states
system.mem_ctrls_1.memoryStateTime::PRE_PDN    426240750                       # Time in different power states
system.mem_ctrls_1.memoryStateTime::ACT    2908490500                       # Time in different power states
system.mem_ctrls_1.memoryStateTime::ACT_PDN  11385839375                       # Time in different power states
system.pwrStateResidencyTicks::UNDEFINED  15267344125                       # Cumulative time (in ticks) in various power states
system.cpu0.branchPred.lookups                1669872                       # Number of BP lookups
system.cpu0.branchPred.condPredicted          1669872                       # Number of conditional branches predicted
system.cpu0.branchPred.condIncorrect            68193                       # Number of conditional branches incorrect
system.cpu0.branchPred.BTBLookups             1329562                       # Number of BTB lookups
system.cpu0.branchPred.BTBHits                      0                       # Number of BTB hits
system.cpu0.branchPred.BTBCorrect                   0                       # Number of correct BTB predictions (this stat may not work properly.
system.cpu0.branchPred.BTBHitPct             0.000000                       # BTB Hit Percentage
system.cpu0.branchPred.usedRAS                  47390                       # Number of times the RAS was used to get a target.
system.cpu0.branchPred.RASInCorrect              6894                       # Number of incorrect RAS predictions.
system.cpu0.branchPred.indirectLookups        1329562                       # Number of indirect predictor lookups.
system.cpu0.branchPred.indirectHits            714111                       # Number of indirect target hits.
system.cpu0.branchPred.indirectMisses          615451                       # Number of indirect misses.
system.cpu0.branchPredindirectMispredicted        23791                       # Number of mispredicted indirect branches.
system.cpu_voltage_domain.voltage                   1                       # Voltage in Volts
system.cpu_clk_domain.clock                       500                       # Clock period in ticks
system.cpu0.dtb.walker.pwrStateResidencyTicks::UNDEFINED  15267344125                       # Cumulative time (in ticks) in various power states
system.cpu0.dtb.rdAccesses                     847543                       # TLB accesses on read requests
system.cpu0.dtb.wrAccesses                      60024                       # TLB accesses on write requests
system.cpu0.dtb.rdMisses                       188706                       # TLB misses on read requests
system.cpu0.dtb.wrMisses                          945                       # TLB misses on write requests
system.cpu0.apic_clk_domain.clock                8000                       # Clock period in ticks
system.cpu0.interrupts.pwrStateResidencyTicks::UNDEFINED  15267344125                       # Cumulative time (in ticks) in various power states
system.cpu0.itb.walker.pwrStateResidencyTicks::UNDEFINED  15267344125                       # Cumulative time (in ticks) in various power states
system.cpu0.itb.rdAccesses                          0                       # TLB accesses on read requests
system.cpu0.itb.wrAccesses                    1400800                       # TLB accesses on write requests
system.cpu0.itb.rdMisses                            0                       # TLB misses on read requests
system.cpu0.itb.wrMisses                         5057                       # TLB misses on write requests
system.cpu0.workload.numSyscalls                    0                       # Number of system calls
system.cpu0.pwrStateResidencyTicks::ON    15267344125                       # Cumulative time (in ticks) in various power states
system.cpu0.numCycles                        30534688                       # number of cpu cycles simulated
system.cpu0.numWorkItemsStarted                     0                       # number of work items this cpu started
system.cpu0.numWorkItemsCompleted                   0                       # number of work items this cpu completed
system.cpu0.fetch.icacheStallCycles           1431601                       # Number of cycles fetch is stalled on an Icache miss
system.cpu0.fetch.Insts                       4875435                       # Number of instructions fetch has processed
system.cpu0.fetch.Branches                    1669872                       # Number of branches that fetch encountered
system.cpu0.fetch.predictedBranches            761501                       # Number of branches that fetch has predicted taken
system.cpu0.fetch.Cycles                     28936273                       # Number of cycles fetch has run and was not squashing or blocked
system.cpu0.fetch.SquashCycles                 139702                       # Number of cycles fetch has spent squashing
system.cpu0.fetch.TlbCycles                      1650                       # Number of cycles fetch has spent waiting for tlb
system.cpu0.fetch.MiscStallCycles                1179                       # Number of cycles fetch has spent waiting on interrupts, or bad addresses, or out of MSHRs
system.cpu0.fetch.PendingTrapStallCycles        44842                       # Number of stall cycles due to pending traps
system.cpu0.fetch.CacheLines                  1395743                       # Number of cache lines fetched
system.cpu0.fetch.IcacheSquashes                 8863                       # Number of outstanding Icache misses that were squashed
system.cpu0.fetch.ItlbSquashes                      6                       # Number of outstanding ITLB misses that were squashed
system.cpu0.fetch.rateDist::samples          30485396                       # Number of instructions fetched each cycle (Total)
system.cpu0.fetch.rateDist::mean             0.321946                       # Number of instructions fetched each cycle (Total)
system.cpu0.fetch.rateDist::stdev            1.423431                       # Number of instructions fetched each cycle (Total)
system.cpu0.fetch.rateDist::underflows              0      0.00%      0.00% # Number of instructions fetched each cycle (Total)
system.cpu0.fetch.rateDist::0                28573089     93.73%     93.73% # Number of instructions fetched each cycle (Total)
system.cpu0.fetch.rateDist::1                   23029      0.08%     93.80% # Number of instructions fetched each cycle (Total)
system.cpu0.fetch.rateDist::2                  698490      2.29%     96.09% # Number of instructions fetched each cycle (Total)
system.cpu0.fetch.rateDist::3                   29974      0.10%     96.19% # Number of instructions fetched each cycle (Total)
system.cpu0.fetch.rateDist::4                  140352      0.46%     96.65% # Number of instructions fetched each cycle (Total)
system.cpu0.fetch.rateDist::5                   65172      0.21%     96.87% # Number of instructions fetched each cycle (Total)
system.cpu0.fetch.rateDist::6                  100390      0.33%     97.20% # Number of instructions fetched each cycle (Total)
system.cpu0.fetch.rateDist::7                   24090      0.08%     97.27% # Number of instructions fetched each cycle (Total)
system.cpu0.fetch.rateDist::8                  830810      2.73%    100.00% # Number of instructions fetched each cycle (Total)
system.cpu0.fetch.rateDist::overflows               0      0.00%    100.00% # Number of instructions fetched each cycle (Total)
system.cpu0.fetch.rateDist::min_value               0                       # Number of instructions fetched each cycle (Total)
system.cpu0.fetch.rateDist::max_value               8                       # Number of instructions fetched each cycle (Total)
system.cpu0.fetch.rateDist::total            30485396                       # Number of instructions fetched each cycle (Total)
system.cpu0.fetch.branchRate                 0.054688                       # Number of branch fetches per cycle
system.cpu0.fetch.rate                       0.159669                       # Number of inst fetches per cycle
system.cpu0.decode.IdleCycles                  698517                       # Number of cycles decode is idle
system.cpu0.decode.BlockedCycles             28467504                       # Number of cycles decode is blocked
system.cpu0.decode.RunCycles                   887845                       # Number of cycles decode is running
system.cpu0.decode.UnblockCycles               361679                       # Number of cycles decode is unblocking
system.cpu0.decode.SquashCycles                 69851                       # Number of cycles decode is squashing
system.cpu0.decode.DecodedInsts               8210070                       # Number of instructions handled by decode
system.cpu0.rename.SquashCycles                 69851                       # Number of cycles rename is squashing
system.cpu0.rename.IdleCycles                  812222                       # Number of cycles rename is idle
system.cpu0.rename.BlockCycles               27000620                       # Number of cycles rename is blocking
system.cpu0.rename.serializeStallCycles         14412                       # count of cycles rename stalled for serializing inst
system.cpu0.rename.RunCycles                  1052784                       # Number of cycles rename is running
system.cpu0.rename.UnblockCycles              1535507                       # Number of cycles rename is unblocking
system.cpu0.rename.RenamedInsts               7891791                       # Number of instructions processed by rename
system.cpu0.rename.ROBFullEvents                67796                       # Number of times rename has blocked due to ROB full
system.cpu0.rename.IQFullEvents               1234653                       # Number of times rename has blocked due to IQ full
system.cpu0.rename.LQFullEvents                240819                       # Number of times rename has blocked due to LQ full
system.cpu0.rename.SQFullEvents                  2578                       # Number of times rename has blocked due to SQ full
system.cpu0.rename.RenamedOperands            9416433                       # Number of destination operands rename has renamed
system.cpu0.rename.RenameLookups             21949258                       # Number of register rename lookups that rename has made
system.cpu0.rename.int_rename_lookups        10360339                       # Number of integer rename lookups
system.cpu0.rename.fp_rename_lookups            49230                       # Number of floating rename lookups
system.cpu0.rename.CommittedMaps              3735668                       # Number of HB maps that are committed
system.cpu0.rename.UndoneMaps                 5680845                       # Number of HB maps that are undone due to squashing
system.cpu0.rename.serializingInsts               324                       # count of serializing insts renamed
system.cpu0.rename.tempSerializingInsts           391                       # count of temporary serializing insts renamed
system.cpu0.rename.skidInsts                  2306629                       # count of insts added to the skid buffer
system.cpu0.memDep0.insertedLoads             1407531                       # Number of loads inserted to the mem dependence unit.
system.cpu0.memDep0.insertedStores              87216                       # Number of stores inserted to the mem dependence unit.
system.cpu0.memDep0.conflictingLoads             5861                       # Number of conflicting loads.
system.cpu0.memDep0.conflictingStores            5650                       # Number of conflicting stores.
system.cpu0.iq.iqInstsAdded                   7500594                       # Number of instructions added to the IQ (excludes non-spec)
system.cpu0.iq.iqNonSpecInstsAdded               5364                       # Number of non-speculative instructions added to the IQ
system.cpu0.iq.iqInstsIssued                  5534222                       # Number of instructions issued
system.cpu0.iq.iqSquashedInstsIssued             7888                       # Number of squashed instructions issued
system.cpu0.iq.iqSquashedInstsExamined        4399862                       # Number of squashed instructions iterated over during squash; mainly for profiling
system.cpu0.iq.iqSquashedOperandsExamined      9061698                       # Number of squashed operands that are examined and possibly removed from graph
system.cpu0.iq.iqSquashedNonSpecRemoved          5361                       # Number of squashed non-spec instructions that were removed
system.cpu0.iq.issued_per_cycle::samples     30485396                       # Number of insts issued each cycle
system.cpu0.iq.issued_per_cycle::mean        0.181537                       # Number of insts issued each cycle
system.cpu0.iq.issued_per_cycle::stdev       0.767938                       # Number of insts issued each cycle
system.cpu0.iq.issued_per_cycle::underflows            0      0.00%      0.00% # Number of insts issued each cycle
system.cpu0.iq.issued_per_cycle::0           28155434     92.36%     92.36% # Number of insts issued each cycle
system.cpu0.iq.issued_per_cycle::1             958019      3.14%     95.50% # Number of insts issued each cycle
system.cpu0.iq.issued_per_cycle::2             500342      1.64%     97.14% # Number of insts issued each cycle
system.cpu0.iq.issued_per_cycle::3             341098      1.12%     98.26% # Number of insts issued each cycle
system.cpu0.iq.issued_per_cycle::4             303227      0.99%     99.25% # Number of insts issued each cycle
system.cpu0.iq.issued_per_cycle::5              96846      0.32%     99.57% # Number of insts issued each cycle
system.cpu0.iq.issued_per_cycle::6              79252      0.26%     99.83% # Number of insts issued each cycle
system.cpu0.iq.issued_per_cycle::7              29849      0.10%     99.93% # Number of insts issued each cycle
system.cpu0.iq.issued_per_cycle::8              21329      0.07%    100.00% # Number of insts issued each cycle
system.cpu0.iq.issued_per_cycle::overflows            0      0.00%    100.00% # Number of insts issued each cycle
system.cpu0.iq.issued_per_cycle::min_value            0                       # Number of insts issued each cycle
system.cpu0.iq.issued_per_cycle::max_value            8                       # Number of insts issued each cycle
system.cpu0.iq.issued_per_cycle::total       30485396                       # Number of insts issued each cycle
system.cpu0.iq.fu_full::No_OpClass                  0      0.00%      0.00% # attempts to use FU when none available
system.cpu0.iq.fu_full::IntAlu                  12810     68.27%     68.27% # attempts to use FU when none available
system.cpu0.iq.fu_full::IntMult                     0      0.00%     68.27% # attempts to use FU when none available
system.cpu0.iq.fu_full::IntDiv                      0      0.00%     68.27% # attempts to use FU when none available
system.cpu0.iq.fu_full::FloatAdd                 1278      6.81%     75.08% # attempts to use FU when none available
system.cpu0.iq.fu_full::FloatCmp                    0      0.00%     75.08% # attempts to use FU when none available
system.cpu0.iq.fu_full::FloatCvt                    0      0.00%     75.08% # attempts to use FU when none available
system.cpu0.iq.fu_full::FloatMult                   0      0.00%     75.08% # attempts to use FU when none available
system.cpu0.iq.fu_full::FloatMultAcc                0      0.00%     75.08% # attempts to use FU when none available
system.cpu0.iq.fu_full::FloatDiv                    0      0.00%     75.08% # attempts to use FU when none available
system.cpu0.iq.fu_full::FloatMisc                   0      0.00%     75.08% # attempts to use FU when none available
system.cpu0.iq.fu_full::FloatSqrt                   0      0.00%     75.08% # attempts to use FU when none available
system.cpu0.iq.fu_full::SimdAdd                     0      0.00%     75.08% # attempts to use FU when none available
system.cpu0.iq.fu_full::SimdAddAcc                  0      0.00%     75.08% # attempts to use FU when none available
system.cpu0.iq.fu_full::SimdAlu                     0      0.00%     75.08% # attempts to use FU when none available
system.cpu0.iq.fu_full::SimdCmp                     0      0.00%     75.08% # attempts to use FU when none available
system.cpu0.iq.fu_full::SimdCvt                     0      0.00%     75.08% # attempts to use FU when none available
system.cpu0.iq.fu_full::SimdMisc                    0      0.00%     75.08% # attempts to use FU when none available
system.cpu0.iq.fu_full::SimdMult                    0      0.00%     75.08% # attempts to use FU when none available
system.cpu0.iq.fu_full::SimdMultAcc                 0      0.00%     75.08% # attempts to use FU when none available
system.cpu0.iq.fu_full::SimdShift                   0      0.00%     75.08% # attempts to use FU when none available
system.cpu0.iq.fu_full::SimdShiftAcc                0      0.00%     75.08% # attempts to use FU when none available
system.cpu0.iq.fu_full::SimdSqrt                    0      0.00%     75.08% # attempts to use FU when none available
system.cpu0.iq.fu_full::SimdFloatAdd                0      0.00%     75.08% # attempts to use FU when none available
system.cpu0.iq.fu_full::SimdFloatAlu                0      0.00%     75.08% # attempts to use FU when none available
system.cpu0.iq.fu_full::SimdFloatCmp                0      0.00%     75.08% # attempts to use FU when none available
system.cpu0.iq.fu_full::SimdFloatCvt                0      0.00%     75.08% # attempts to use FU when none available
system.cpu0.iq.fu_full::SimdFloatDiv                0      0.00%     75.08% # attempts to use FU when none available
system.cpu0.iq.fu_full::SimdFloatMisc               0      0.00%     75.08% # attempts to use FU when none available
system.cpu0.iq.fu_full::SimdFloatMult               0      0.00%     75.08% # attempts to use FU when none available
system.cpu0.iq.fu_full::SimdFloatMultAcc            0      0.00%     75.08% # attempts to use FU when none available
system.cpu0.iq.fu_full::SimdFloatSqrt               0      0.00%     75.08% # attempts to use FU when none available
system.cpu0.iq.fu_full::MemRead                  4077     21.73%     96.81% # attempts to use FU when none available
system.cpu0.iq.fu_full::MemWrite                  267      1.42%     98.24% # attempts to use FU when none available
system.cpu0.iq.fu_full::FloatMemRead              280      1.49%     99.73% # attempts to use FU when none available
system.cpu0.iq.fu_full::FloatMemWrite              51      0.27%    100.00% # attempts to use FU when none available
system.cpu0.iq.fu_full::IprAccess                   0      0.00%    100.00% # attempts to use FU when none available
system.cpu0.iq.fu_full::InstPrefetch                0      0.00%    100.00% # attempts to use FU when none available
system.cpu0.iq.FU_type_0::No_OpClass            18675      0.34%      0.34% # Type of FU issued
system.cpu0.iq.FU_type_0::IntAlu              4535524     81.95%     82.29% # Type of FU issued
system.cpu0.iq.FU_type_0::IntMult                1225      0.02%     82.31% # Type of FU issued
system.cpu0.iq.FU_type_0::IntDiv                11737      0.21%     82.53% # Type of FU issued
system.cpu0.iq.FU_type_0::FloatAdd              16912      0.31%     82.83% # Type of FU issued
system.cpu0.iq.FU_type_0::FloatCmp                  0      0.00%     82.83% # Type of FU issued
system.cpu0.iq.FU_type_0::FloatCvt                  0      0.00%     82.83% # Type of FU issued
system.cpu0.iq.FU_type_0::FloatMult                 0      0.00%     82.83% # Type of FU issued
system.cpu0.iq.FU_type_0::FloatMultAcc              0      0.00%     82.83% # Type of FU issued
system.cpu0.iq.FU_type_0::FloatDiv                  0      0.00%     82.83% # Type of FU issued
system.cpu0.iq.FU_type_0::FloatMisc                 0      0.00%     82.83% # Type of FU issued
system.cpu0.iq.FU_type_0::FloatSqrt                 0      0.00%     82.83% # Type of FU issued
system.cpu0.iq.FU_type_0::SimdAdd                   0      0.00%     82.83% # Type of FU issued
system.cpu0.iq.FU_type_0::SimdAddAcc                0      0.00%     82.83% # Type of FU issued
system.cpu0.iq.FU_type_0::SimdAlu                   0      0.00%     82.83% # Type of FU issued
system.cpu0.iq.FU_type_0::SimdCmp                   0      0.00%     82.83% # Type of FU issued
system.cpu0.iq.FU_type_0::SimdCvt                   0      0.00%     82.83% # Type of FU issued
system.cpu0.iq.FU_type_0::SimdMisc                  0      0.00%     82.83% # Type of FU issued
system.cpu0.iq.FU_type_0::SimdMult                  0      0.00%     82.83% # Type of FU issued
system.cpu0.iq.FU_type_0::SimdMultAcc               0      0.00%     82.83% # Type of FU issued
system.cpu0.iq.FU_type_0::SimdShift                 0      0.00%     82.83% # Type of FU issued
system.cpu0.iq.FU_type_0::SimdShiftAcc              0      0.00%     82.83% # Type of FU issued
system.cpu0.iq.FU_type_0::SimdSqrt                  0      0.00%     82.83% # Type of FU issued
system.cpu0.iq.FU_type_0::SimdFloatAdd              0      0.00%     82.83% # Type of FU issued
system.cpu0.iq.FU_type_0::SimdFloatAlu              0      0.00%     82.83% # Type of FU issued
system.cpu0.iq.FU_type_0::SimdFloatCmp              0      0.00%     82.83% # Type of FU issued
system.cpu0.iq.FU_type_0::SimdFloatCvt              0      0.00%     82.83% # Type of FU issued
system.cpu0.iq.FU_type_0::SimdFloatDiv              0      0.00%     82.83% # Type of FU issued
system.cpu0.iq.FU_type_0::SimdFloatMisc             0      0.00%     82.83% # Type of FU issued
system.cpu0.iq.FU_type_0::SimdFloatMult             0      0.00%     82.83% # Type of FU issued
system.cpu0.iq.FU_type_0::SimdFloatMultAcc            0      0.00%     82.83% # Type of FU issued
system.cpu0.iq.FU_type_0::SimdFloatSqrt             0      0.00%     82.83% # Type of FU issued
system.cpu0.iq.FU_type_0::MemRead              881621     15.93%     98.76% # Type of FU issued
system.cpu0.iq.FU_type_0::MemWrite              64274      1.16%     99.92% # Type of FU issued
system.cpu0.iq.FU_type_0::FloatMemRead           4056      0.07%    100.00% # Type of FU issued
system.cpu0.iq.FU_type_0::FloatMemWrite           198      0.00%    100.00% # Type of FU issued
system.cpu0.iq.FU_type_0::IprAccess                 0      0.00%    100.00% # Type of FU issued
system.cpu0.iq.FU_type_0::InstPrefetch              0      0.00%    100.00% # Type of FU issued
system.cpu0.iq.FU_type_0::total               5534222                       # Type of FU issued
system.cpu0.iq.rate                          0.181244                       # Inst issue rate
system.cpu0.iq.fu_busy_cnt                      18763                       # FU busy when requested
system.cpu0.iq.fu_busy_rate                  0.003390                       # FU busy rate (busy events/executed inst)
system.cpu0.iq.int_inst_queue_reads          41536240                       # Number of integer instruction queue reads
system.cpu0.iq.int_inst_queue_writes         11861178                       # Number of integer instruction queue writes
system.cpu0.iq.int_inst_queue_wakeup_accesses      5314999                       # Number of integer instruction queue wakeup accesses
system.cpu0.iq.fp_inst_queue_reads              44249                       # Number of floating instruction queue reads
system.cpu0.iq.fp_inst_queue_writes             44642                       # Number of floating instruction queue writes
system.cpu0.iq.fp_inst_queue_wakeup_accesses        18760                       # Number of floating instruction queue wakeup accesses
system.cpu0.iq.vec_inst_queue_reads                 0                       # Number of vector instruction queue reads
system.cpu0.iq.vec_inst_queue_writes                0                       # Number of vector instruction queue writes
system.cpu0.iq.vec_inst_queue_wakeup_accesses            0                       # Number of vector instruction queue wakeup accesses
system.cpu0.iq.int_alu_accesses               5511516                       # Number of integer alu accesses
system.cpu0.iq.fp_alu_accesses                  22794                       # Number of floating point alu accesses
system.cpu0.iq.vec_alu_accesses                     0                       # Number of vector alu accesses
system.cpu0.iew.lsq.thread0.forwLoads            5125                       # Number of loads that had data forwarded from stores
system.cpu0.iew.lsq.thread0.invAddrLoads            0                       # Number of loads ignored due to an invalid address
system.cpu0.iew.lsq.thread0.squashedLoads       827439                       # Number of loads squashed
system.cpu0.iew.lsq.thread0.ignoredResponses          170                       # Number of memory responses ignored because the instruction is squashed
system.cpu0.iew.lsq.thread0.memOrderViolation            0                       # Number of memory ordering violations
system.cpu0.iew.lsq.thread0.squashedStores        54679                       # Number of stores squashed
system.cpu0.iew.lsq.thread0.invAddrSwpfs            0                       # Number of software prefetches ignored due to an invalid address
system.cpu0.iew.lsq.thread0.blockedLoads            0                       # Number of blocked loads due to partial load-store forwarding
system.cpu0.iew.lsq.thread0.rescheduledLoads           40                       # Number of loads that were rescheduled
system.cpu0.iew.lsq.thread0.cacheBlocked         2031                       # Number of times an access to memory failed due to the cache being blocked
system.cpu0.iew.iewIdleCycles                       0                       # Number of cycles IEW is idle
system.cpu0.iew.iewSquashCycles                 69851                       # Number of cycles IEW is squashing
system.cpu0.iew.iewBlockCycles               25058617                       # Number of cycles IEW is blocking
system.cpu0.iew.iewUnblockCycles               302152                       # Number of cycles IEW is unblocking
system.cpu0.iew.iewDispatchedInsts            7505958                       # Number of instructions dispatched to IQ
system.cpu0.iew.iewDispSquashedInsts             4303                       # Number of squashed instructions skipped by dispatch
system.cpu0.iew.iewDispLoadInsts              1407531                       # Number of dispatched load instructions
system.cpu0.iew.iewDispStoreInsts               87216                       # Number of dispatched store instructions
system.cpu0.iew.iewDispNonSpecInsts              1997                       # Number of dispatched non-speculative instructions
system.cpu0.iew.iewIQFullEvents                 18517                       # Number of times the IQ has become full, causing a stall
system.cpu0.iew.iewLSQFullEvents                60671                       # Number of times the LSQ has become full, causing a stall
system.cpu0.iew.memOrderViolationEvents             0                       # Number of memory order violations
system.cpu0.iew.predictedTakenIncorrect         35859                       # Number of branches that were predicted taken incorrectly
system.cpu0.iew.predictedNotTakenIncorrect        41914                       # Number of branches that were predicted not taken incorrectly
system.cpu0.iew.branchMispredicts               77773                       # Number of branch mispredicts detected at execute
system.cpu0.iew.iewExecutedInsts              5437554                       # Number of executed instructions
system.cpu0.iew.iewExecLoadInsts               847290                       # Number of load instructions executed
system.cpu0.iew.iewExecSquashedInsts            96666                       # Number of squashed instructions skipped in execute
system.cpu0.iew.exec_swp                            0                       # number of swp insts executed
system.cpu0.iew.exec_nop                            0                       # number of nop insts executed
system.cpu0.iew.exec_refs                      907301                       # number of memory reference insts executed
system.cpu0.iew.exec_branches                  684638                       # Number of branches executed
system.cpu0.iew.exec_stores                     60011                       # Number of stores executed
system.cpu0.iew.exec_rate                    0.178078                       # Inst execution rate
system.cpu0.iew.wb_sent                       5351238                       # cumulative count of insts sent to commit
system.cpu0.iew.wb_count                      5333759                       # cumulative count of insts written-back
system.cpu0.iew.wb_producers                  3849028                       # num instructions producing a value
system.cpu0.iew.wb_consumers                  6259928                       # num instructions consuming a value
system.cpu0.iew.wb_rate                      0.174679                       # insts written-back per cycle
system.cpu0.iew.wb_fanout                    0.614868                       # average fanout of values written-back
system.cpu0.commit.commitSquashedInsts        4400618                       # The number of squashed insts skipped by commit
system.cpu0.commit.branchMispredicts            69851                       # The number of times a branch was mispredicted
system.cpu0.commit.committed_per_cycle::samples     29862948                       # Number of insts commited each cycle
system.cpu0.commit.committed_per_cycle::mean     0.104014                       # Number of insts commited each cycle
system.cpu0.commit.committed_per_cycle::stdev     0.591265                       # Number of insts commited each cycle
system.cpu0.commit.committed_per_cycle::underflows            0      0.00%      0.00% # Number of insts commited each cycle
system.cpu0.commit.committed_per_cycle::0     28507329     95.46%     95.46% # Number of insts commited each cycle
system.cpu0.commit.committed_per_cycle::1       619954      2.08%     97.54% # Number of insts commited each cycle
system.cpu0.commit.committed_per_cycle::2       158889      0.53%     98.07% # Number of insts commited each cycle
system.cpu0.commit.committed_per_cycle::3       417172      1.40%     99.47% # Number of insts commited each cycle
system.cpu0.commit.committed_per_cycle::4        59722      0.20%     99.67% # Number of insts commited each cycle
system.cpu0.commit.committed_per_cycle::5        34607      0.12%     99.78% # Number of insts commited each cycle
system.cpu0.commit.committed_per_cycle::6         6329      0.02%     99.80% # Number of insts commited each cycle
system.cpu0.commit.committed_per_cycle::7         4544      0.02%     99.82% # Number of insts commited each cycle
system.cpu0.commit.committed_per_cycle::8        54402      0.18%    100.00% # Number of insts commited each cycle
system.cpu0.commit.committed_per_cycle::overflows            0      0.00%    100.00% # Number of insts commited each cycle
system.cpu0.commit.committed_per_cycle::min_value            0                       # Number of insts commited each cycle
system.cpu0.commit.committed_per_cycle::max_value            8                       # Number of insts commited each cycle
system.cpu0.commit.committed_per_cycle::total     29862948                       # Number of insts commited each cycle
system.cpu0.commit.committedInsts             1555801                       # Number of instructions committed
system.cpu0.commit.committedOps               3106169                       # Number of ops (including micro ops) committed
system.cpu0.commit.swp_count                        0                       # Number of s/w prefetches committed
system.cpu0.commit.refs                        612645                       # Number of memory references committed
system.cpu0.commit.loads                       580111                       # Number of loads committed
system.cpu0.commit.membars                          0                       # Number of memory barriers committed
system.cpu0.commit.branches                    557943                       # Number of branches committed
system.cpu0.commit.vec_insts                        0                       # Number of committed Vector instructions.
system.cpu0.commit.fp_insts                     13690                       # Number of committed floating point instructions.
system.cpu0.commit.int_insts                  3092671                       # Number of committed integer instructions.
system.cpu0.commit.function_calls                5753                       # Number of function calls committed.
system.cpu0.commit.op_class_0::No_OpClass         4028      0.13%      0.13% # Class of committed instruction
system.cpu0.commit.op_class_0::IntAlu         2467783     79.45%     79.58% # Class of committed instruction
system.cpu0.commit.op_class_0::IntMult            231      0.01%     79.58% # Class of committed instruction
system.cpu0.commit.op_class_0::IntDiv            9902      0.32%     79.90% # Class of committed instruction
system.cpu0.commit.op_class_0::FloatAdd         11580      0.37%     80.28% # Class of committed instruction
system.cpu0.commit.op_class_0::FloatCmp             0      0.00%     80.28% # Class of committed instruction
system.cpu0.commit.op_class_0::FloatCvt             0      0.00%     80.28% # Class of committed instruction
system.cpu0.commit.op_class_0::FloatMult            0      0.00%     80.28% # Class of committed instruction
system.cpu0.commit.op_class_0::FloatMultAcc            0      0.00%     80.28% # Class of committed instruction
system.cpu0.commit.op_class_0::FloatDiv             0      0.00%     80.28% # Class of committed instruction
system.cpu0.commit.op_class_0::FloatMisc            0      0.00%     80.28% # Class of committed instruction
system.cpu0.commit.op_class_0::FloatSqrt            0      0.00%     80.28% # Class of committed instruction
system.cpu0.commit.op_class_0::SimdAdd              0      0.00%     80.28% # Class of committed instruction
system.cpu0.commit.op_class_0::SimdAddAcc            0      0.00%     80.28% # Class of committed instruction
system.cpu0.commit.op_class_0::SimdAlu              0      0.00%     80.28% # Class of committed instruction
system.cpu0.commit.op_class_0::SimdCmp              0      0.00%     80.28% # Class of committed instruction
system.cpu0.commit.op_class_0::SimdCvt              0      0.00%     80.28% # Class of committed instruction
system.cpu0.commit.op_class_0::SimdMisc             0      0.00%     80.28% # Class of committed instruction
system.cpu0.commit.op_class_0::SimdMult             0      0.00%     80.28% # Class of committed instruction
system.cpu0.commit.op_class_0::SimdMultAcc            0      0.00%     80.28% # Class of committed instruction
system.cpu0.commit.op_class_0::SimdShift            0      0.00%     80.28% # Class of committed instruction
system.cpu0.commit.op_class_0::SimdShiftAcc            0      0.00%     80.28% # Class of committed instruction
system.cpu0.commit.op_class_0::SimdSqrt             0      0.00%     80.28% # Class of committed instruction
system.cpu0.commit.op_class_0::SimdFloatAdd            0      0.00%     80.28% # Class of committed instruction
system.cpu0.commit.op_class_0::SimdFloatAlu            0      0.00%     80.28% # Class of committed instruction
system.cpu0.commit.op_class_0::SimdFloatCmp            0      0.00%     80.28% # Class of committed instruction
system.cpu0.commit.op_class_0::SimdFloatCvt            0      0.00%     80.28% # Class of committed instruction
system.cpu0.commit.op_class_0::SimdFloatDiv            0      0.00%     80.28% # Class of committed instruction
system.cpu0.commit.op_class_0::SimdFloatMisc            0      0.00%     80.28% # Class of committed instruction
system.cpu0.commit.op_class_0::SimdFloatMult            0      0.00%     80.28% # Class of committed instruction
system.cpu0.commit.op_class_0::SimdFloatMultAcc            0      0.00%     80.28% # Class of committed instruction
system.cpu0.commit.op_class_0::SimdFloatSqrt            0      0.00%     80.28% # Class of committed instruction
system.cpu0.commit.op_class_0::MemRead         578001     18.61%     98.88% # Class of committed instruction
system.cpu0.commit.op_class_0::MemWrite         32534      1.05%     99.93% # Class of committed instruction
system.cpu0.commit.op_class_0::FloatMemRead         2110      0.07%    100.00% # Class of committed instruction
system.cpu0.commit.op_class_0::FloatMemWrite            0      0.00%    100.00% # Class of committed instruction
system.cpu0.commit.op_class_0::IprAccess            0      0.00%    100.00% # Class of committed instruction
system.cpu0.commit.op_class_0::InstPrefetch            0      0.00%    100.00% # Class of committed instruction
system.cpu0.commit.op_class_0::total          3106169                       # Class of committed instruction
system.cpu0.commit.bw_lim_events                54402                       # number cycles where commit BW limit reached
system.cpu0.rob.rob_reads                    37315333                       # The number of ROB reads
system.cpu0.rob.rob_writes                   15637841                       # The number of ROB writes
system.cpu0.timesIdled                            419                       # Number of times that the entire CPU went into an idle state and unscheduled itself
system.cpu0.idleCycles                          49292                       # Total number of cycles that the CPU has spent unscheduled due to idling
system.cpu0.committedInsts                    1555801                       # Number of Instructions Simulated
system.cpu0.committedOps                      3106169                       # Number of Ops (including micro ops) Simulated
system.cpu0.cpi                             19.626346                       # CPI: Cycles Per Instruction
system.cpu0.cpi_total                       19.626346                       # CPI: Total CPI of All Threads
system.cpu0.ipc                              0.050952                       # IPC: Instructions Per Cycle
system.cpu0.ipc_total                        0.050952                       # IPC: Total IPC of All Threads
system.cpu0.int_regfile_reads                 5612803                       # number of integer regfile reads
system.cpu0.int_regfile_writes                4596513                       # number of integer regfile writes
system.cpu0.fp_regfile_reads                    33183                       # number of floating regfile reads
system.cpu0.fp_regfile_writes                   16538                       # number of floating regfile writes
system.cpu0.cc_regfile_reads                  3629955                       # number of cc regfile reads
system.cpu0.cc_regfile_writes                 1546877                       # number of cc regfile writes
system.cpu0.misc_regfile_reads                2867891                       # number of misc regfile reads
system.cpu0.dcache.tags.pwrStateResidencyTicks::UNDEFINED  15267344125                       # Cumulative time (in ticks) in various power states
system.cpu0.dcache.tags.replacements           308113                       # number of replacements
system.cpu0.dcache.tags.tagsinuse                1024                       # Cycle average of tags in use
system.cpu0.dcache.tags.total_refs             338449                       # Total number of references to valid blocks.
system.cpu0.dcache.tags.sampled_refs           308113                       # Sample count of references to valid blocks.
system.cpu0.dcache.tags.avg_refs             1.098457                       # Average number of references to valid blocks.
system.cpu0.dcache.tags.warmup_cycle                0                       # Cycle when the warmup percentage was hit.
system.cpu0.dcache.tags.occ_blocks::cpu0.data         1024                       # Average occupied blocks per requestor
system.cpu0.dcache.tags.occ_percent::cpu0.data            1                       # Average percentage of cache occupancy
system.cpu0.dcache.tags.occ_percent::total            1                       # Average percentage of cache occupancy
system.cpu0.dcache.tags.occ_task_id_blocks::1024         1024                       # Occupied blocks per task id
system.cpu0.dcache.tags.age_task_id_blocks_1024::0          143                       # Occupied blocks per task id
system.cpu0.dcache.tags.age_task_id_blocks_1024::1          802                       # Occupied blocks per task id
system.cpu0.dcache.tags.age_task_id_blocks_1024::2           79                       # Occupied blocks per task id
system.cpu0.dcache.tags.occ_task_id_percent::1024            1                       # Percentage of cache occupancy per task id
system.cpu0.dcache.tags.tag_accesses          3787969                       # Number of tag accesses
system.cpu0.dcache.tags.data_accesses         3787969                       # Number of data accesses
system.cpu0.dcache.pwrStateResidencyTicks::UNDEFINED  15267344125                       # Cumulative time (in ticks) in various power states
system.cpu0.dcache.ReadReq_hits::cpu0.data       305477                       # number of ReadReq hits
system.cpu0.dcache.ReadReq_hits::total         305477                       # number of ReadReq hits
system.cpu0.dcache.WriteReq_hits::cpu0.data        31376                       # number of WriteReq hits
system.cpu0.dcache.WriteReq_hits::total         31376                       # number of WriteReq hits
system.cpu0.dcache.demand_hits::cpu0.data       336853                       # number of demand (read+write) hits
system.cpu0.dcache.demand_hits::total          336853                       # number of demand (read+write) hits
system.cpu0.dcache.overall_hits::cpu0.data       336853                       # number of overall hits
system.cpu0.dcache.overall_hits::total         336853                       # number of overall hits
system.cpu0.dcache.ReadReq_misses::cpu0.data       531953                       # number of ReadReq misses
system.cpu0.dcache.ReadReq_misses::total       531953                       # number of ReadReq misses
system.cpu0.dcache.WriteReq_misses::cpu0.data         1158                       # number of WriteReq misses
system.cpu0.dcache.WriteReq_misses::total         1158                       # number of WriteReq misses
system.cpu0.dcache.demand_misses::cpu0.data       533111                       # number of demand (read+write) misses
system.cpu0.dcache.demand_misses::total        533111                       # number of demand (read+write) misses
system.cpu0.dcache.overall_misses::cpu0.data       533111                       # number of overall misses
system.cpu0.dcache.overall_misses::total       533111                       # number of overall misses
system.cpu0.dcache.ReadReq_miss_latency::cpu0.data  33645014500                       # number of ReadReq miss cycles
system.cpu0.dcache.ReadReq_miss_latency::total  33645014500                       # number of ReadReq miss cycles
system.cpu0.dcache.WriteReq_miss_latency::cpu0.data     43985500                       # number of WriteReq miss cycles
system.cpu0.dcache.WriteReq_miss_latency::total     43985500                       # number of WriteReq miss cycles
system.cpu0.dcache.demand_miss_latency::cpu0.data  33689000000                       # number of demand (read+write) miss cycles
system.cpu0.dcache.demand_miss_latency::total  33689000000                       # number of demand (read+write) miss cycles
system.cpu0.dcache.overall_miss_latency::cpu0.data  33689000000                       # number of overall miss cycles
system.cpu0.dcache.overall_miss_latency::total  33689000000                       # number of overall miss cycles
system.cpu0.dcache.ReadReq_accesses::cpu0.data       837430                       # number of ReadReq accesses(hits+misses)
system.cpu0.dcache.ReadReq_accesses::total       837430                       # number of ReadReq accesses(hits+misses)
system.cpu0.dcache.WriteReq_accesses::cpu0.data        32534                       # number of WriteReq accesses(hits+misses)
system.cpu0.dcache.WriteReq_accesses::total        32534                       # number of WriteReq accesses(hits+misses)
system.cpu0.dcache.demand_accesses::cpu0.data       869964                       # number of demand (read+write) accesses
system.cpu0.dcache.demand_accesses::total       869964                       # number of demand (read+write) accesses
system.cpu0.dcache.overall_accesses::cpu0.data       869964                       # number of overall (read+write) accesses
system.cpu0.dcache.overall_accesses::total       869964                       # number of overall (read+write) accesses
system.cpu0.dcache.ReadReq_miss_rate::cpu0.data     0.635221                       # miss rate for ReadReq accesses
system.cpu0.dcache.ReadReq_miss_rate::total     0.635221                       # miss rate for ReadReq accesses
system.cpu0.dcache.WriteReq_miss_rate::cpu0.data     0.035594                       # miss rate for WriteReq accesses
system.cpu0.dcache.WriteReq_miss_rate::total     0.035594                       # miss rate for WriteReq accesses
system.cpu0.dcache.demand_miss_rate::cpu0.data     0.612797                       # miss rate for demand accesses
system.cpu0.dcache.demand_miss_rate::total     0.612797                       # miss rate for demand accesses
system.cpu0.dcache.overall_miss_rate::cpu0.data     0.612797                       # miss rate for overall accesses
system.cpu0.dcache.overall_miss_rate::total     0.612797                       # miss rate for overall accesses
system.cpu0.dcache.ReadReq_avg_miss_latency::cpu0.data 63248.096166                       # average ReadReq miss latency
system.cpu0.dcache.ReadReq_avg_miss_latency::total 63248.096166                       # average ReadReq miss latency
system.cpu0.dcache.WriteReq_avg_miss_latency::cpu0.data 37984.024180                       # average WriteReq miss latency
system.cpu0.dcache.WriteReq_avg_miss_latency::total 37984.024180                       # average WriteReq miss latency
system.cpu0.dcache.demand_avg_miss_latency::cpu0.data 63193.218673                       # average overall miss latency
system.cpu0.dcache.demand_avg_miss_latency::total 63193.218673                       # average overall miss latency
system.cpu0.dcache.overall_avg_miss_latency::cpu0.data 63193.218673                       # average overall miss latency
[...]
system.l2.ReadSharedReq_hits::cpu0.data        127896                       # number of ReadSharedReq hits
system.l2.ReadSharedReq_hits::total            127896                       # number of ReadSharedReq hits
system.l2.demand_hits::cpu0.data               128744                       # number of demand (read+write) hits
system.l2.demand_hits::total                   128744                       # number of demand (read+write) hits
system.l2.overall_hits::cpu0.data              128744                       # number of overall hits
system.l2.overall_hits::total                  128744                       # number of overall hits
system.l2.ReadExReq_misses::cpu0.data             308                       # number of ReadExReq misses
system.l2.ReadExReq_misses::total                 308                       # number of ReadExReq misses
system.l2.ReadSharedReq_misses::cpu0.data       179060                       # number of ReadSharedReq misses
system.l2.ReadSharedReq_misses::total          179060                       # number of ReadSharedReq misses
system.l2.demand_misses::cpu0.data             179368                       # number of demand (read+write) misses
system.l2.demand_misses::total                 179368                       # number of demand (read+write) misses
system.l2.overall_misses::cpu0.data            179368                       # number of overall misses
system.l2.overall_misses::total                179368                       # number of overall misses
system.l2.ReadExReq_miss_latency::cpu0.data     31623000                       # number of ReadExReq miss cycles
system.l2.ReadExReq_miss_latency::total      31623000                       # number of ReadExReq miss cycles
system.l2.ReadSharedReq_miss_latency::cpu0.data  17073353000                       # number of ReadSharedReq miss cycles
system.l2.ReadSharedReq_miss_latency::total  17073353000                       # number of ReadSharedReq miss cycles
system.l2.demand_miss_latency::cpu0.data  17104976000                       # number of demand (read+write) miss cycles
system.l2.demand_miss_latency::total      17104976000                       # number of demand (read+write) miss cycles
system.l2.overall_miss_latency::cpu0.data  17104976000                       # number of overall miss cycles
system.l2.overall_miss_latency::total     17104976000                       # number of overall miss cycles
system.l2.WritebackDirty_accesses::writebacks         3321                       # number of WritebackDirty accesses(hits+misses)
system.l2.WritebackDirty_accesses::total         3321                       # number of WritebackDirty accesses(hits+misses)
system.l2.ReadExReq_accesses::cpu0.data          1156                       # number of ReadExReq accesses(hits+misses)
system.l2.ReadExReq_accesses::total              1156                       # number of ReadExReq accesses(hits+misses)
system.l2.ReadSharedReq_accesses::cpu0.data       306956                       # number of ReadSharedReq accesses(hits+misses)
system.l2.ReadSharedReq_accesses::total        306956                       # number of ReadSharedReq accesses(hits+misses)
system.l2.demand_accesses::cpu0.data           308112                       # number of demand (read+write) accesses
system.l2.demand_accesses::total               308112                       # number of demand (read+write) accesses
system.l2.overall_accesses::cpu0.data          308112                       # number of overall (read+write) accesses
system.l2.overall_accesses::total              308112                       # number of overall (read+write) accesses
system.l2.ReadExReq_miss_rate::cpu0.data     0.266436                       # miss rate for ReadExReq accesses
system.l2.ReadExReq_miss_rate::total         0.266436                       # miss rate for ReadExReq accesses
system.l2.ReadSharedReq_miss_rate::cpu0.data     0.583341                       # miss rate for ReadSharedReq accesses
system.l2.ReadSharedReq_miss_rate::total     0.583341                       # miss rate for ReadSharedReq accesses
system.l2.demand_miss_rate::cpu0.data        0.582152                       # miss rate for demand accesses
system.l2.demand_miss_rate::total            0.582152                       # miss rate for demand accesses
system.l2.overall_miss_rate::cpu0.data       0.582152                       # miss rate for overall accesses
system.l2.overall_miss_rate::total           0.582152                       # miss rate for overall accesses
system.l2.ReadExReq_avg_miss_latency::cpu0.data 102672.077922                       # average ReadExReq miss latency
system.l2.ReadExReq_avg_miss_latency::total 102672.077922                       # average ReadExReq miss latency
system.l2.ReadSharedReq_avg_miss_latency::cpu0.data 95349.899475                       # average ReadSharedReq miss latency
system.l2.ReadSharedReq_avg_miss_latency::total 95349.899475                       # average ReadSharedReq miss latency
system.l2.demand_avg_miss_latency::cpu0.data 95362.472682                       # average overall miss latency
system.l2.demand_avg_miss_latency::total 95362.472682                       # average overall miss latency
system.l2.overall_avg_miss_latency::cpu0.data 95362.472682                       # average overall miss latency
system.l2.overall_avg_miss_latency::total 95362.472682                       # average overall miss latency
system.l2.blocked_cycles::no_mshrs                  0                       # number of cycles access was blocked
system.l2.blocked_cycles::no_targets                0                       # number of cycles access was blocked
system.l2.blocked::no_mshrs                         0                       # number of cycles access was blocked
system.l2.blocked::no_targets                       0                       # number of cycles access was blocked
system.l2.avg_blocked_cycles::no_mshrs            nan                       # average number of cycles each access was blocked
system.l2.avg_blocked_cycles::no_targets          nan                       # average number of cycles each access was blocked
system.l2.writebacks::writebacks                  422                       # number of writebacks
system.l2.writebacks::total                       422                       # number of writebacks
system.l2.ReadExReq_mshr_misses::cpu0.data          308                       # number of ReadExReq MSHR misses
system.l2.ReadExReq_mshr_misses::total            308                       # number of ReadExReq MSHR misses
system.l2.ReadSharedReq_mshr_misses::cpu0.data       179060                       # number of ReadSharedReq MSHR misses
system.l2.ReadSharedReq_mshr_misses::total       179060                       # number of ReadSharedReq MSHR misses
system.l2.demand_mshr_misses::cpu0.data        179368                       # number of demand (read+write) MSHR misses
system.l2.demand_mshr_misses::total            179368                       # number of demand (read+write) MSHR misses
system.l2.overall_mshr_misses::cpu0.data       179368                       # number of overall MSHR misses
system.l2.overall_mshr_misses::total           179368                       # number of overall MSHR misses
system.l2.ReadExReq_mshr_miss_latency::cpu0.data     28553000                       # number of ReadExReq MSHR miss cycles
system.l2.ReadExReq_mshr_miss_latency::total     28553000                       # number of ReadExReq MSHR miss cycles
system.l2.ReadSharedReq_mshr_miss_latency::cpu0.data  15282733000                       # number of ReadSharedReq MSHR miss cycles
system.l2.ReadSharedReq_mshr_miss_latency::total  15282733000                       # number of ReadSharedReq MSHR miss cycles
system.l2.demand_mshr_miss_latency::cpu0.data  15311286000                       # number of demand (read+write) MSHR miss cycles
system.l2.demand_mshr_miss_latency::total  15311286000                       # number of demand (read+write) MSHR miss cycles
system.l2.overall_mshr_miss_latency::cpu0.data  15311286000                       # number of overall MSHR miss cycles
system.l2.overall_mshr_miss_latency::total  15311286000                       # number of overall MSHR miss cycles
system.l2.ReadExReq_mshr_miss_rate::cpu0.data     0.266436                       # mshr miss rate for ReadExReq accesses
system.l2.ReadExReq_mshr_miss_rate::total     0.266436                       # mshr miss rate for ReadExReq accesses
system.l2.ReadSharedReq_mshr_miss_rate::cpu0.data     0.583341                       # mshr miss rate for ReadSharedReq accesses
system.l2.ReadSharedReq_mshr_miss_rate::total     0.583341                       # mshr miss rate for ReadSharedReq accesses
system.l2.demand_mshr_miss_rate::cpu0.data     0.582152                       # mshr miss rate for demand accesses
system.l2.demand_mshr_miss_rate::total       0.582152                       # mshr miss rate for demand accesses
system.l2.overall_mshr_miss_rate::cpu0.data     0.582152                       # mshr miss rate for overall accesses
system.l2.overall_mshr_miss_rate::total      0.582152                       # mshr miss rate for overall accesses
system.l2.ReadExReq_avg_mshr_miss_latency::cpu0.data 92704.545455                       # average ReadExReq mshr miss latency
system.l2.ReadExReq_avg_mshr_miss_latency::total 92704.545455                       # average ReadExReq mshr miss latency
system.l2.ReadSharedReq_avg_mshr_miss_latency::cpu0.data 85349.787781                       # average ReadSharedReq mshr miss latency
system.l2.ReadSharedReq_avg_mshr_miss_latency::total 85349.787781                       # average ReadSharedReq mshr miss latency
system.l2.demand_avg_mshr_miss_latency::cpu0.data 85362.416931                       # average overall mshr miss latency
system.l2.demand_avg_mshr_miss_latency::total 85362.416931                       # average overall mshr miss latency
system.l2.overall_avg_mshr_miss_latency::cpu0.data 85362.416931                       # average overall mshr miss latency
system.l2.overall_avg_mshr_miss_latency::total 85362.416931                       # average overall mshr miss latency
system.membus.snoop_filter.tot_requests        358733                       # Total number of requests made to the snoop filter.
system.membus.snoop_filter.hit_single_requests       179368                       # Number of requests hitting in the snoop filter with a single holder of the requested data.
system.membus.snoop_filter.hit_multi_requests            0                       # Number of requests hitting in the snoop filter with multiple (>1) holders of the requested data.
system.membus.snoop_filter.tot_snoops               0                       # Total number of snoops made to the snoop filter.
system.membus.snoop_filter.hit_single_snoops            0                       # Number of snoops hitting in the snoop filter with a single holder of the requested data.
system.membus.snoop_filter.hit_multi_snoops            0                       # Number of snoops hitting in the snoop filter with multiple (>1) holders of the requested data.
system.membus.pwrStateResidencyTicks::UNDEFINED  15267344125                       # Cumulative time (in ticks) in various power states
system.membus.trans_dist::ReadResp             179062                       # Transaction distribution
system.membus.trans_dist::WritebackDirty          422                       # Transaction distribution
system.membus.trans_dist::CleanEvict           178944                       # Transaction distribution
system.membus.trans_dist::ReadExReq               307                       # Transaction distribution
system.membus.trans_dist::ReadExResp              307                       # Transaction distribution
system.membus.trans_dist::ReadSharedReq        179060                       # Transaction distribution
system.membus.pkt_count_system.l2.mem_side::system.mem_ctrls.port       538102                       # Packet count per connected master and slave (bytes)
system.membus.pkt_count_system.l2.mem_side::total       538102                       # Packet count per connected master and slave (bytes)
system.membus.pkt_count::total                 538102                       # Packet count per connected master and slave (bytes)
system.membus.pkt_size_system.l2.mem_side::system.mem_ctrls.port     11506624                       # Cumulative packet size per connected master and slave (bytes)
system.membus.pkt_size_system.l2.mem_side::total     11506624                       # Cumulative packet size per connected master and slave (bytes)
system.membus.pkt_size::total                11506624                       # Cumulative packet size per connected master and slave (bytes)
system.membus.snoops                                0                       # Total snoops (count)
system.membus.snoopTraffic                          0                       # Total snoop traffic (bytes)
system.membus.snoop_fanout::samples            179367                       # Request fanout histogram
system.membus.snoop_fanout::mean                    0                       # Request fanout histogram
system.membus.snoop_fanout::stdev                   0                       # Request fanout histogram
system.membus.snoop_fanout::underflows              0      0.00%      0.00% # Request fanout histogram
system.membus.snoop_fanout::0                  179367    100.00%    100.00% # Request fanout histogram
system.membus.snoop_fanout::1                       0      0.00%    100.00% # Request fanout histogram
system.membus.snoop_fanout::overflows               0      0.00%    100.00% # Request fanout histogram
system.membus.snoop_fanout::min_value               0                       # Request fanout histogram
system.membus.snoop_fanout::max_value               0                       # Request fanout histogram
system.membus.snoop_fanout::total              179367                       # Request fanout histogram
system.membus.reqLayer8.occupancy           422917500                       # Layer occupancy (ticks)
system.membus.reqLayer8.utilization               2.8                       # Layer utilization (%)
system.membus.respLayer1.occupancy          972217250                       # Layer occupancy (ticks)
system.membus.respLayer1.utilization              6.4                       # Layer utilization (%)
system.tol2bus.snoop_filter.tot_requests       616225                       # Total number of requests made to the snoop filter.
system.tol2bus.snoop_filter.hit_single_requests       308111                       # Number of requests hitting in the snoop filter with a single holder of the requested data.
system.tol2bus.snoop_filter.hit_multi_requests          765                       # Number of requests hitting in the snoop filter with multiple (>1) holders of the requested data.
system.tol2bus.snoop_filter.tot_snoops              3                       # Total number of snoops made to the snoop filter.
system.tol2bus.snoop_filter.hit_single_snoops            3                       # Number of snoops hitting in the snoop filter with a single holder of the requested data.
system.tol2bus.snoop_filter.hit_multi_snoops            0                       # Number of snoops hitting in the snoop filter with multiple (>1) holders of the requested data.
system.tol2bus.pwrStateResidencyTicks::UNDEFINED  15267344125                       # Cumulative time (in ticks) in various power states
system.tol2bus.trans_dist::ReadResp            306958                       # Transaction distribution
system.tol2bus.trans_dist::WritebackDirty         3743                       # Transaction distribution
system.tol2bus.trans_dist::CleanEvict          483739                       # Transaction distribution
system.tol2bus.trans_dist::ReadExReq             1156                       # Transaction distribution
system.tol2bus.trans_dist::ReadExResp            1155                       # Transaction distribution
system.tol2bus.trans_dist::ReadSharedReq       306956                       # Transaction distribution
system.tol2bus.pkt_count_system.cpu0.dcache.mem_side::system.l2.cpu_side       924338                       # Packet count per connected master and slave (bytes)
system.tol2bus.pkt_count::total                924338                       # Packet count per connected master and slave (bytes)
system.tol2bus.pkt_size_system.cpu0.dcache.mem_side::system.l2.cpu_side     19931776                       # Cumulative packet size per connected master and slave (bytes)
system.tol2bus.pkt_size::total               19931776                       # Cumulative packet size per connected master and slave (bytes)
system.tol2bus.snoops                          179369                       # Total snoops (count)
system.tol2bus.snoopTraffic                     27008                       # Total snoop traffic (bytes)
system.tol2bus.snoop_fanout::samples           487481                       # Request fanout histogram
system.tol2bus.snoop_fanout::mean            0.001571                       # Request fanout histogram
system.tol2bus.snoop_fanout::stdev           0.039609                       # Request fanout histogram
system.tol2bus.snoop_fanout::underflows             0      0.00%      0.00% # Request fanout histogram
system.tol2bus.snoop_fanout::0                 486715     99.84%     99.84% # Request fanout histogram
system.tol2bus.snoop_fanout::1                    766      0.16%    100.00% # Request fanout histogram
system.tol2bus.snoop_fanout::2                      0      0.00%    100.00% # Request fanout histogram
system.tol2bus.snoop_fanout::3                      0      0.00%    100.00% # Request fanout histogram
system.tol2bus.snoop_fanout::4                      0      0.00%    100.00% # Request fanout histogram
system.tol2bus.snoop_fanout::5                      0      0.00%    100.00% # Request fanout histogram
system.tol2bus.snoop_fanout::6                      0      0.00%    100.00% # Request fanout histogram
system.tol2bus.snoop_fanout::7                      0      0.00%    100.00% # Request fanout histogram
system.tol2bus.snoop_fanout::8                      0      0.00%    100.00% # Request fanout histogram
system.tol2bus.snoop_fanout::9                      0      0.00%    100.00% # Request fanout histogram
system.tol2bus.snoop_fanout::10                     0      0.00%    100.00% # Request fanout histogram
system.tol2bus.snoop_fanout::11                     0      0.00%    100.00% # Request fanout histogram
system.tol2bus.snoop_fanout::12                     0      0.00%    100.00% # Request fanout histogram
system.tol2bus.snoop_fanout::13                     0      0.00%    100.00% # Request fanout histogram
system.tol2bus.snoop_fanout::14                     0      0.00%    100.00% # Request fanout histogram
system.tol2bus.snoop_fanout::15                     0      0.00%    100.00% # Request fanout histogram
system.tol2bus.snoop_fanout::16                     0      0.00%    100.00% # Request fanout histogram
system.tol2bus.snoop_fanout::overflows              0      0.00%    100.00% # Request fanout histogram
system.tol2bus.snoop_fanout::min_value              0                       # Request fanout histogram
system.tol2bus.snoop_fanout::max_value              1                       # Request fanout histogram
system.tol2bus.snoop_fanout::total             487481                       # Request fanout histogram
system.tol2bus.reqLayer0.occupancy          311433500                       # Layer occupancy (ticks)
system.tol2bus.reqLayer0.utilization              2.0                       # Layer utilization (%)
system.tol2bus.respLayer1.occupancy         462169500                       # Layer occupancy (ticks)
system.tol2bus.respLayer1.utilization             3.0                       # Layer utilization (%)

---------- End Simulation Statistics   ----------
