
---------- Begin Simulation Statistics ----------
sim_seconds                                  0.015267                       # Number of seconds simulated
sim_ticks                                 15267344125                       # Number of ticks simulated
final_tick                               2106893489250                       # Number of ticks from beginning of simulation (restored from checkpoints and never reset)
sim_freq                                 1000000000000                       # Frequency of simulated ticks
host_inst_rate                               18429728                       # Simulator instruction rate (inst/s)
host_op_rate                                 33370484                       # Simulator op (including micro ops) rate (op/s)
host_tick_rate                               58511504                       # Simulator tick rate (ticks/s)
host_mem_usage                                2332536                       # Number of bytes of host memory used
host_seconds                                   260.93                       # Real time elapsed on the host
sim_insts                                  4808848985                       # Number of instructions simulated
sim_ops                                    8707324494                       # Number of ops (including micro ops) simulated
system.voltage_domain.voltage                       1                       # Voltage in Volts
system.clk_domain.clock                          1000                       # Clock period in ticks
system.mem_ctrls.pwrStateResidencyTicks::UNDEFINED  15267344125                       # Cumulative time (in ticks) in various power states
system.mem_ctrls.bytes_read::cpu0.inst           9152                       # Number of bytes read from this memory
system.mem_ctrls.bytes_read::cpu0.data         880512                       # Number of bytes read from this memory
system.mem_ctrls.bytes_read::total             889664                       # Number of bytes read from this memory
system.mem_ctrls.bytes_inst_read::cpu0.inst         9152                       # Number of instructions bytes read from this memory
system.mem_ctrls.bytes_inst_read::total          9152                       # Number of instructions bytes read from this memory
system.mem_ctrls.bytes_written::writebacks       850112                       # Number of bytes written to this memory
system.mem_ctrls.bytes_written::total          850112                       # Number of bytes written to this memory
system.mem_ctrls.num_reads::cpu0.inst             143                       # Number of read requests responded to by this memory
system.mem_ctrls.num_reads::cpu0.data           13758                       # Number of read requests responded to by this memory
system.mem_ctrls.num_reads::total               13901                       # Number of read requests responded to by this memory
system.mem_ctrls.num_writes::writebacks         13283                       # Number of write requests responded to by this memory
system.mem_ctrls.num_writes::total              13283                       # Number of write requests responded to by this memory
system.mem_ctrls.bw_read::cpu0.inst            599449                       # Total read bandwidth from this memory (bytes/s)
system.mem_ctrls.bw_read::cpu0.data          57672899                       # Total read bandwidth from this memory (bytes/s)
system.mem_ctrls.bw_read::total              58272349                       # Total read bandwidth from this memory (bytes/s)
system.mem_ctrls.bw_inst_read::cpu0.inst       599449                       # Instruction read bandwidth from this memory (bytes/s)
system.mem_ctrls.bw_inst_read::total           599449                       # Instruction read bandwidth from this memory (bytes/s)
system.mem_ctrls.bw_write::writebacks        55681721                       # Write bandwidth from this memory (bytes/s)
system.mem_ctrls.bw_write::total             55681721                       # Write bandwidth from this memory (bytes/s)
system.mem_ctrls.bw_total::writebacks        55681721                       # Total bandwidth to/from this memory (bytes/s)
system.mem_ctrls.bw_total::cpu0.inst           599449                       # Total bandwidth to/from this memory (bytes/s)
system.mem_ctrls.bw_total::cpu0.data         57672899                       # Total bandwidth to/from this memory (bytes/s)
system.mem_ctrls.bw_total::total            113954070                       # Total bandwidth to/from this memory (bytes/s)
system.mem_ctrls.readReqs                       13901                       # Number of read requests accepted
system.mem_ctrls.writeReqs                      13283                       # Number of write requests accepted
system.mem_ctrls.readBursts                     13901                       # Number of DRAM read bursts, including those serviced by the write queue
system.mem_ctrls.writeBursts                    13283                       # Number of DRAM write bursts, including those merged in the write queue
system.mem_ctrls.bytesReadDRAM                 889664                       # Total number of bytes read from DRAM
system.mem_ctrls.bytesReadWrQ                       0                       # Total number of bytes read from write queue
system.mem_ctrls.bytesWritten                  850752                       # Total number of bytes written to DRAM
system.mem_ctrls.bytesReadSys                  889664                       # Total read bytes from the system interface side
system.mem_ctrls.bytesWrittenSys               850112                       # Total written bytes from the system interface side
system.mem_ctrls.servicedByWrQ                      0                       # Number of DRAM read bursts serviced by the write queue
system.mem_ctrls.mergedWrBursts                     0                       # Number of DRAM write bursts merged with an existing one
system.mem_ctrls.neitherReadNorWriteReqs            0                       # Number of requests that are neither read nor write
system.mem_ctrls.perBankRdBursts::0               799                       # Per bank write bursts
system.mem_ctrls.perBankRdBursts::1               823                       # Per bank write bursts
system.mem_ctrls.perBankRdBursts::2               933                       # Per bank write bursts
system.mem_ctrls.perBankRdBursts::3               863                       # Per bank write bursts
system.mem_ctrls.perBankRdBursts::4               902                       # Per bank write bursts
system.mem_ctrls.perBankRdBursts::5               943                       # Per bank write bursts
system.mem_ctrls.perBankRdBursts::6              1176                       # Per bank write bursts
system.mem_ctrls.perBankRdBursts::7              1070                       # Per bank write bursts
system.mem_ctrls.perBankRdBursts::8              1000                       # Per bank write bursts
system.mem_ctrls.perBankRdBursts::9               869                       # Per bank write bursts
system.mem_ctrls.perBankRdBursts::10              776                       # Per bank write bursts
system.mem_ctrls.perBankRdBursts::11              747                       # Per bank write bursts
system.mem_ctrls.perBankRdBursts::12              689                       # Per bank write bursts
system.mem_ctrls.perBankRdBursts::13              710                       # Per bank write bursts
system.mem_ctrls.perBankRdBursts::14              804                       # Per bank write bursts
system.mem_ctrls.perBankRdBursts::15              797                       # Per bank write bursts
system.mem_ctrls.perBankWrBursts::0               825                       # Per bank write bursts
system.mem_ctrls.perBankWrBursts::1               718                       # Per bank write bursts
system.mem_ctrls.perBankWrBursts::2               834                       # Per bank write bursts
system.mem_ctrls.perBankWrBursts::3               759                       # Per bank write bursts
system.mem_ctrls.perBankWrBursts::4               814                       # Per bank write bursts
system.mem_ctrls.perBankWrBursts::5               854                       # Per bank write bursts
system.mem_ctrls.perBankWrBursts::6              1086                       # Per bank write bursts
system.mem_ctrls.perBankWrBursts::7              1025                       # Per bank write bursts
system.mem_ctrls.perBankWrBursts::8               980                       # Per bank write bursts
system.mem_ctrls.perBankWrBursts::9               872                       # Per bank write bursts
system.mem_ctrls.perBankWrBursts::10              786                       # Per bank write bursts
system.mem_ctrls.perBankWrBursts::11              749                       # Per bank write bursts
system.mem_ctrls.perBankWrBursts::12              689                       # Per bank write bursts
system.mem_ctrls.perBankWrBursts::13              698                       # Per bank write bursts
system.mem_ctrls.perBankWrBursts::14              807                       # Per bank write bursts
system.mem_ctrls.perBankWrBursts::15              797                       # Per bank write bursts
system.mem_ctrls.numRdRetry                         0                       # Number of times read queue was full causing retry
system.mem_ctrls.numWrRetry                         0                       # Number of times write queue was full causing retry
system.mem_ctrls.totGap                   14049525000                       # Total gap between requests
system.mem_ctrls.readPktSize::0                     0                       # Read request sizes (log2)
system.mem_ctrls.readPktSize::1                     0                       # Read request sizes (log2)
system.mem_ctrls.readPktSize::2                     0                       # Read request sizes (log2)
system.mem_ctrls.readPktSize::3                     0                       # Read request sizes (log2)
system.mem_ctrls.readPktSize::4                     0                       # Read request sizes (log2)
system.mem_ctrls.readPktSize::5                     0                       # Read request sizes (log2)
system.mem_ctrls.readPktSize::6                 13901                       # Read request sizes (log2)
system.mem_ctrls.writePktSize::0                    0                       # Write request sizes (log2)
system.mem_ctrls.writePktSize::1                    0                       # Write request sizes (log2)
system.mem_ctrls.writePktSize::2                    0                       # Write request sizes (log2)
system.mem_ctrls.writePktSize::3                    0                       # Write request sizes (log2)
system.mem_ctrls.writePktSize::4                    0                       # Write request sizes (log2)
system.mem_ctrls.writePktSize::5                    0                       # Write request sizes (log2)
system.mem_ctrls.writePktSize::6                13283                       # Write request sizes (log2)
system.mem_ctrls.rdQLenPdf::0                   13603                       # What read queue length does an incoming req see
system.mem_ctrls.rdQLenPdf::1                     235                       # What read queue length does an incoming req see
system.mem_ctrls.rdQLenPdf::2                      48                       # What read queue length does an incoming req see
system.mem_ctrls.rdQLenPdf::3                      10                       # What read queue length does an incoming req see
system.mem_ctrls.rdQLenPdf::4                       4                       # What read queue length does an incoming req see
system.mem_ctrls.rdQLenPdf::5                       1                       # What read queue length does an incoming req see
system.mem_ctrls.rdQLenPdf::6                       0                       # What read queue length does an incoming req see
system.mem_ctrls.rdQLenPdf::7                       0                       # What read queue length does an incoming req see
system.mem_ctrls.rdQLenPdf::8                       0                       # What read queue length does an incoming req see
system.mem_ctrls.rdQLenPdf::9                       0                       # What read queue length does an incoming req see
system.mem_ctrls.rdQLenPdf::10                      0                       # What read queue length does an incoming req see
system.mem_ctrls.rdQLenPdf::11                      0                       # What read queue length does an incoming req see
system.mem_ctrls.rdQLenPdf::12                      0                       # What read queue length does an incoming req see
system.mem_ctrls.rdQLenPdf::13                      0                       # What read queue length does an incoming req see
system.mem_ctrls.rdQLenPdf::14                      0                       # What read queue length does an incoming req see
system.mem_ctrls.rdQLenPdf::15                      0                       # What read queue length does an incoming req see
system.mem_ctrls.rdQLenPdf::16                      0                       # What read queue length does an incoming req see
system.mem_ctrls.rdQLenPdf::17                      0                       # What read queue length does an incoming req see
system.mem_ctrls.rdQLenPdf::18                      0                       # What read queue length does an incoming req see
system.mem_ctrls.rdQLenPdf::19                      0                       # What read queue length does an incoming req see
system.mem_ctrls.rdQLenPdf::20                      0                       # What read queue length does an incoming req see
system.mem_ctrls.rdQLenPdf::21                      0                       # What read queue length does an incoming req see
system.mem_ctrls.rdQLenPdf::22                      0                       # What read queue length does an incoming req see
system.mem_ctrls.rdQLenPdf::23                      0                       # What read queue length does an incoming req see
system.mem_ctrls.rdQLenPdf::24                      0                       # What read queue length does an incoming req see
system.mem_ctrls.rdQLenPdf::25                      0                       # What read queue length does an incoming req see
system.mem_ctrls.rdQLenPdf::26                      0                       # What read queue length does an incoming req see
system.mem_ctrls.rdQLenPdf::27                      0                       # What read queue length does an incoming req see
system.mem_ctrls.rdQLenPdf::28                      0                       # What read queue length does an incoming req see
system.mem_ctrls.rdQLenPdf::29                      0                       # What read queue length does an incoming req see
system.mem_ctrls.rdQLenPdf::30                      0                       # What read queue length does an incoming req see
system.mem_ctrls.rdQLenPdf::31                      0                       # What read queue length does an incoming req see
system.mem_ctrls.wrQLenPdf::0                       0                       # What write queue length does an incoming req see
system.mem_ctrls.wrQLenPdf::1                       0                       # What write queue length does an incoming req see
system.mem_ctrls.wrQLenPdf::2                       0                       # What write queue length does an incoming req see
system.mem_ctrls.wrQLenPdf::3                       0                       # What write queue length does an incoming req see
system.mem_ctrls.wrQLenPdf::4                       0                       # What write queue length does an incoming req see
system.mem_ctrls.wrQLenPdf::5                       0                       # What write queue length does an incoming req see
system.mem_ctrls.wrQLenPdf::6                       0                       # What write queue length does an incoming req see
system.mem_ctrls.wrQLenPdf::7                       0                       # What write queue length does an incoming req see
system.mem_ctrls.wrQLenPdf::8                       0                       # What write queue length does an incoming req see
system.mem_ctrls.wrQLenPdf::9                       0                       # What write queue length does an incoming req see
system.mem_ctrls.wrQLenPdf::10                      0                       # What write queue length does an incoming req see
system.mem_ctrls.wrQLenPdf::11                      0                       # What write queue length does an incoming req see
system.mem_ctrls.wrQLenPdf::12                      0                       # What write queue length does an incoming req see
system.mem_ctrls.wrQLenPdf::13                      0                       # What write queue length does an incoming req see
system.mem_ctrls.wrQLenPdf::14                      0                       # What write queue length does an incoming req see
system.mem_ctrls.wrQLenPdf::15                    496                       # What write queue length does an incoming req see
system.mem_ctrls.wrQLenPdf::16                    501                       # What write queue length does an incoming req see
system.mem_ctrls.wrQLenPdf::17                    748                       # What write queue length does an incoming req see
system.mem_ctrls.wrQLenPdf::18                    762                       # What write queue length does an incoming req see
system.mem_ctrls.wrQLenPdf::19                    765                       # What write queue length does an incoming req see
system.mem_ctrls.wrQLenPdf::20                    766                       # What write queue length does an incoming req see
system.mem_ctrls.wrQLenPdf::21                    767                       # What write queue length does an incoming req see
system.mem_ctrls.wrQLenPdf::22                    770                       # What write queue length does an incoming req see
system.mem_ctrls.wrQLenPdf::23                    770                       # What write queue length does an incoming req see
system.mem_ctrls.wrQLenPdf::24                    768                       # What write queue length does an incoming req see
system.mem_ctrls.wrQLenPdf::25                    771                       # What write queue length does an incoming req see
system.mem_ctrls.wrQLenPdf::26                    768                       # What write queue length does an incoming req see
system.mem_ctrls.wrQLenPdf::27                    773                       # What write queue length does an incoming req see
system.mem_ctrls.wrQLenPdf::28                    772                       # What write queue length does an incoming req see
system.mem_ctrls.wrQLenPdf::29                    772                       # What write queue length does an incoming req see
system.mem_ctrls.wrQLenPdf::30                    768                       # What write queue length does an incoming req see
system.mem_ctrls.wrQLenPdf::31                    770                       # What write queue length does an incoming req see
system.mem_ctrls.wrQLenPdf::32                    774                       # What write queue length does an incoming req see
system.mem_ctrls.wrQLenPdf::33                      1                       # What write queue length does an incoming req see
system.mem_ctrls.wrQLenPdf::34                      1                       # What write queue length does an incoming req see
system.mem_ctrls.wrQLenPdf::35                      0                       # What write queue length does an incoming req see
system.mem_ctrls.wrQLenPdf::36                      0                       # What write queue length does an incoming req see
system.mem_ctrls.wrQLenPdf::37                      0                       # What write queue length does an incoming req see
system.mem_ctrls.wrQLenPdf::38                      0                       # What write queue length does an incoming req see
system.mem_ctrls.wrQLenPdf::39                      0                       # What write queue length does an incoming req see
system.mem_ctrls.wrQLenPdf::40                      0                       # What write queue length does an incoming req see
system.mem_ctrls.wrQLenPdf::41                      0                       # What write queue length does an incoming req see
system.mem_ctrls.wrQLenPdf::42                      0                       # What write queue length does an incoming req see
system.mem_ctrls.wrQLenPdf::43                      0                       # What write queue length does an incoming req see
system.mem_ctrls.wrQLenPdf::44                      0                       # What write queue length does an incoming req see
system.mem_ctrls.wrQLenPdf::45                      0                       # What write queue length does an incoming req see
system.mem_ctrls.wrQLenPdf::46                      0                       # What write queue length does an incoming req see
system.mem_ctrls.wrQLenPdf::47                      0                       # What write queue length does an incoming req see
system.mem_ctrls.wrQLenPdf::48                      0                       # What write queue length does an incoming req see
system.mem_ctrls.wrQLenPdf::49                      0                       # What write queue length does an incoming req see
system.mem_ctrls.wrQLenPdf::50                      0                       # What write queue length does an incoming req see
system.mem_ctrls.wrQLenPdf::51                      0                       # What write queue length does an incoming req see
system.mem_ctrls.wrQLenPdf::52                      0                       # What write queue length does an incoming req see
system.mem_ctrls.wrQLenPdf::53                      0                       # What write queue length does an incoming req see
system.mem_ctrls.wrQLenPdf::54                      0                       # What write queue length does an incoming req see
system.mem_ctrls.wrQLenPdf::55                      0                       # What write queue length does an incoming req see
system.mem_ctrls.wrQLenPdf::56                      0                       # What write queue length does an incoming req see
system.mem_ctrls.wrQLenPdf::57                      0                       # What write queue length does an incoming req see
system.mem_ctrls.wrQLenPdf::58                      0                       # What write queue length does an incoming req see
system.mem_ctrls.wrQLenPdf::59                      0                       # What write queue length does an incoming req see
system.mem_ctrls.wrQLenPdf::60                      0                       # What write queue length does an incoming req see
system.mem_ctrls.wrQLenPdf::61                      0                       # What write queue length does an incoming req see
system.mem_ctrls.wrQLenPdf::62                      0                       # What write queue length does an incoming req see
system.mem_ctrls.wrQLenPdf::63                      0                       # What write queue length does an incoming req see
system.mem_ctrls.bytesPerActivate::samples         5072                       # Bytes accessed per row activation
system.mem_ctrls.bytesPerActivate::mean    343.154574                       # Bytes accessed per row activation
system.mem_ctrls.bytesPerActivate::gmean   209.430496                       # Bytes accessed per row activation
system.mem_ctrls.bytesPerActivate::stdev   326.581101                       # Bytes accessed per row activation
system.mem_ctrls.bytesPerActivate::0-127         1769     34.88%     34.88% # Bytes accessed per row activation
system.mem_ctrls.bytesPerActivate::128-255          769     15.16%     50.04% # Bytes accessed per row activation
system.mem_ctrls.bytesPerActivate::256-383          500      9.86%     59.90% # Bytes accessed per row activation
system.mem_ctrls.bytesPerActivate::384-511         1009     19.89%     79.79% # Bytes accessed per row activation
system.mem_ctrls.bytesPerActivate::512-639          113      2.23%     82.02% # Bytes accessed per row activation
system.mem_ctrls.bytesPerActivate::640-767           79      1.56%     83.58% # Bytes accessed per row activation
system.mem_ctrls.bytesPerActivate::768-895           97      1.91%     85.49% # Bytes accessed per row activation
system.mem_ctrls.bytesPerActivate::896-1023           88      1.74%     87.22% # Bytes accessed per row activation
system.mem_ctrls.bytesPerActivate::1024-1151          648     12.78%    100.00% # Bytes accessed per row activation
system.mem_ctrls.bytesPerActivate::total         5072                       # Bytes accessed per row activation
system.mem_ctrls.rdPerTurnAround::samples          767                       # Reads before turning the bus around for writes
system.mem_ctrls.rdPerTurnAround::mean      18.136897                       # Reads before turning the bus around for writes
system.mem_ctrls.rdPerTurnAround::gmean     17.487586                       # Reads before turning the bus around for writes
system.mem_ctrls.rdPerTurnAround::stdev      8.951612                       # Reads before turning the bus around for writes
system.mem_ctrls.rdPerTurnAround::0-7               2      0.26%      0.26% # Reads before turning the bus around for writes
system.mem_ctrls.rdPerTurnAround::8-15             35      4.56%      4.82% # Reads before turning the bus around for writes
system.mem_ctrls.rdPerTurnAround::16-23           713     92.96%     97.78% # Reads before turning the bus around for writes
system.mem_ctrls.rdPerTurnAround::24-31             8      1.04%     98.83% # Reads before turning the bus around for writes
system.mem_ctrls.rdPerTurnAround::32-39             1      0.13%     98.96% # Reads before turning the bus around for writes
system.mem_ctrls.rdPerTurnAround::56-63             3      0.39%     99.35% # Reads before turning the bus around for writes
system.mem_ctrls.rdPerTurnAround::96-103            1      0.13%     99.48% # Reads before turning the bus around for writes
system.mem_ctrls.rdPerTurnAround::104-111            1      0.13%     99.61% # Reads before turning the bus around for writes
system.mem_ctrls.rdPerTurnAround::112-119            1      0.13%     99.74% # Reads before turning the bus around for writes
system.mem_ctrls.rdPerTurnAround::128-135            1      0.13%     99.87% # Reads before turning the bus around for writes
system.mem_ctrls.rdPerTurnAround::136-143            1      0.13%    100.00% # Reads before turning the bus around for writes
system.mem_ctrls.rdPerTurnAround::total           767                       # Reads before turning the bus around for writes
system.mem_ctrls.wrPerTurnAround::samples          767                       # Writes before turning the bus around for reads
system.mem_ctrls.wrPerTurnAround::mean      17.331160                       # Writes before turning the bus around for reads
system.mem_ctrls.wrPerTurnAround::gmean     17.301061                       # Writes before turning the bus around for reads
system.mem_ctrls.wrPerTurnAround::stdev      1.026976                       # Writes before turning the bus around for reads
system.mem_ctrls.wrPerTurnAround::16              263     34.29%     34.29% # Writes before turning the bus around for reads
system.mem_ctrls.wrPerTurnAround::17                5      0.65%     34.94% # Writes before turning the bus around for reads
system.mem_ctrls.wrPerTurnAround::18              491     64.02%     98.96% # Writes before turning the bus around for reads
system.mem_ctrls.wrPerTurnAround::19                5      0.65%     99.61% # Writes before turning the bus around for reads
system.mem_ctrls.wrPerTurnAround::20                2      0.26%     99.87% # Writes before turning the bus around for reads
system.mem_ctrls.wrPerTurnAround::27                1      0.13%    100.00% # Writes before turning the bus around for reads
system.mem_ctrls.wrPerTurnAround::total           767                       # Writes before turning the bus around for reads
system.mem_ctrls.totQLat                    319128750                       # Total ticks spent queuing
system.mem_ctrls.totMemAccLat               579772500                       # Total ticks spent from burst creation until serviced by the DRAM
system.mem_ctrls.totBusLat                   69505000                       # Total ticks spent in databus transfers
system.mem_ctrls.avgQLat                     22957.25                       # Average queueing delay per DRAM burst
system.mem_ctrls.avgBusLat                    5000.00                       # Average bus latency per DRAM burst
system.mem_ctrls.avgMemAccLat                41707.25                       # Average memory access latency per DRAM burst
system.mem_ctrls.avgRdBW                        58.27                       # Average DRAM read bandwidth in MiByte/s
system.mem_ctrls.avgWrBW                        55.72                       # Average achieved write bandwidth in MiByte/s
system.mem_ctrls.avgRdBWSys                     58.27                       # Average system read bandwidth in MiByte/s
system.mem_ctrls.avgWrBWSys                     55.68                       # Average system write bandwidth in MiByte/s
system.mem_ctrls.peakBW                      12800.00                       # Theoretical peak bandwidth in MiByte/s
system.mem_ctrls.busUtil                         0.89                       # Data bus utilization in percentage
system.mem_ctrls.busUtilRead                     0.46                       # Data bus utilization in percentage for reads
system.mem_ctrls.busUtilWrite                    0.44                       # Data bus utilization in percentage for writes
system.mem_ctrls.avgRdQLen                       1.08                       # Average read queue length when enqueuing
system.mem_ctrls.avgWrQLen                      26.21                       # Average write queue length when enqueuing
system.mem_ctrls.readRowHits                    10768                       # Number of row buffer hits during reads
system.mem_ctrls.writeRowHits                   11355                       # Number of row buffer hits during writes
system.mem_ctrls.readRowHitRate                 77.46                       # Row buffer hit rate for reads
system.mem_ctrls.writeRowHitRate                85.49                       # Row buffer hit rate for writes
system.mem_ctrls.avgGap                     516830.67                       # Average gap between requests
system.mem_ctrls.pageHitRate                    81.38                       # Row buffer hit rate, read and write combined
system.mem_ctrls_0.actEnergy                 20627460                       # Energy for activate commands per rank (pJ)
system.mem_ctrls_0.preEnergy                 10967550                       # Energy for precharge commands per rank (pJ)
system.mem_ctrls_0.readEnergy                53614260                       # Energy for read commands per rank (pJ)
system.mem_ctrls_0.writeEnergy               36096300                       # Energy for write commands per rank (pJ)
system.mem_ctrls_0.refreshEnergy         848203200.000000                       # Energy for refresh commands per rank (pJ)
system.mem_ctrls_0.actBackEnergy            556970370                       # Energy for active background per rank (pJ)
system.mem_ctrls_0.preBackEnergy             39910560                       # Energy for precharge background per rank (pJ)
system.mem_ctrls_0.actPowerDownEnergy      2551933890                       # Energy for active power-down per rank (pJ)
system.mem_ctrls_0.prePowerDownEnergy       888493440                       # Energy for precharge power-down per rank (pJ)
system.mem_ctrls_0.selfRefreshEnergy       1563062760                       # Energy for self refresh per rank (pJ)
system.mem_ctrls_0.totalEnergy             6569885070                       # Total energy per rank (pJ)
system.mem_ctrls_0.averagePower            430.322721                       # Core power per rank (mW)
system.mem_ctrls_0.totalIdleTime          12731778125                       # Total Idle time Per DRAM Rank
system.mem_ctrls_0.memoryStateTime::IDLE     64704000                       # Time in different power states
system.mem_ctrls_0.memoryStateTime::REF     360072000                       # Time in different power states
system.mem_ctrls_0.memoryStateTime::SREF   6031843500                       # Time in different power states
system.mem_ctrls_0.memoryStateTime::PRE_PDN   2313757000                       # Time in different power states
system.mem_ctrls_0.memoryStateTime::ACT     900623000                       # Time in different power states
system.mem_ctrls_0.memoryStateTime::ACT_PDN   5596344625                       # Time in different power states
system.mem_ctrls_1.actEnergy                 15579480                       # Energy for activate commands per rank (pJ)
system.mem_ctrls_1.preEnergy                  8280690                       # Energy for precharge commands per rank (pJ)
system.mem_ctrls_1.readEnergy                45638880                       # Energy for read commands per rank (pJ)
system.mem_ctrls_1.writeEnergy               33293160                       # Energy for write commands per rank (pJ)
system.mem_ctrls_1.refreshEnergy         733265520.000000                       # Energy for refresh commands per rank (pJ)
system.mem_ctrls_1.actBackEnergy            437244150                       # Energy for active background per rank (pJ)
system.mem_ctrls_1.preBackEnergy             39556800                       # Energy for precharge background per rank (pJ)
system.mem_ctrls_1.actPowerDownEnergy      2186342730                       # Energy for active power-down per rank (pJ)
system.mem_ctrls_1.prePowerDownEnergy       758323200                       # Energy for precharge power-down per rank (pJ)
system.mem_ctrls_1.selfRefreshEnergy       1895652540                       # Energy for self refresh per rank (pJ)
system.mem_ctrls_1.totalEnergy             6153358710                       # Total energy per rank (pJ)
system.mem_ctrls_1.averagePower            403.040546                       # Core power per rank (mW)
system.mem_ctrls_1.totalIdleTime          13002485375                       # Total Idle time Per DRAM Rank
system.mem_ctrls_1.memoryStateTime::IDLE     67972250                       # Time in different power states
system.mem_ctrls_1.memoryStateTime::REF     311386000                       # Time in different power states
system.mem_ctrls_1.memoryStateTime::SREF   7435648125                       # Time in different power states
system.mem_ctrls_1.memoryStateTime::PRE_PDN   1974753250                       # Time in different power states
system.mem_ctrls_1.memoryStateTime::ACT     683119750                       # Time in different power states
system.mem_ctrls_1.memoryStateTime::ACT_PDN   4794464750                       # Time in different power states
system.pwrStateResidencyTicks::UNDEFINED  15267344125                       # Cumulative time (in ticks) in various power states
system.cpu0.branchPred.lookups                5689816                       # Number of BP lookups
system.cpu0.branchPred.condPredicted          5689816                       # Number of conditional branches predicted
system.cpu0.branchPred.condIncorrect           100167                       # Number of conditional branches incorrect
system.cpu0.branchPred.BTBLookups             4888076                       # Number of BTB lookups
system.cpu0.branchPred.BTBHits                      0                       # Number of BTB hits
system.cpu0.branchPred.BTBCorrect                   0                       # Number of correct BTB predictions (this stat may not work properly.
system.cpu0.branchPred.BTBHitPct             0.000000                       # BTB Hit Percentage
system.cpu0.branchPred.usedRAS                 636919                       # Number of times the RAS was used to get a target.
system.cpu0.branchPred.RASInCorrect              2551                       # Number of incorrect RAS predictions.
system.cpu0.branchPred.indirectLookups        4888076                       # Number of indirect predictor lookups.
system.cpu0.branchPred.indirectHits           2963522                       # Number of indirect target hits.
system.cpu0.branchPred.indirectMisses         1924554                       # Number of indirect misses.
system.cpu0.branchPredindirectMispredicted         5250                       # Number of mispredicted indirect branches.
system.cpu_voltage_domain.voltage                   1                       # Voltage in Volts
system.cpu_clk_domain.clock                       500                       # Clock period in ticks
system.cpu0.dtb.walker.pwrStateResidencyTicks::UNDEFINED  15267344125                       # Cumulative time (in ticks) in various power states
system.cpu0.dtb.rdAccesses                    9367409                       # TLB accesses on read requests
system.cpu0.dtb.wrAccesses                    2233366                       # TLB accesses on write requests
system.cpu0.dtb.rdMisses                         1052                       # TLB misses on read requests
system.cpu0.dtb.wrMisses                          650                       # TLB misses on write requests
system.cpu0.apic_clk_domain.clock                8000                       # Clock period in ticks
system.cpu0.interrupts.pwrStateResidencyTicks::UNDEFINED  15267344125                       # Cumulative time (in ticks) in various power states
system.cpu0.itb.walker.pwrStateResidencyTicks::UNDEFINED  15267344125                       # Cumulative time (in ticks) in various power states
system.cpu0.itb.rdAccesses                          0                       # TLB accesses on read requests
system.cpu0.itb.wrAccesses                    6280118                       # TLB accesses on write requests
system.cpu0.itb.rdMisses                            0                       # TLB misses on read requests
system.cpu0.itb.wrMisses                           64                       # TLB misses on write requests
system.cpu0.workload.numSyscalls                   24                       # Number of system calls
system.cpu0.pwrStateResidencyTicks::ON    15267344125                       # Cumulative time (in ticks) in various power states
system.cpu0.numCycles                        30534688                       # number of cpu cycles simulated
system.cpu0.numWorkItemsStarted                     0                       # number of work items this cpu started
system.cpu0.numWorkItemsCompleted                   0                       # number of work items this cpu completed
system.cpu0.fetch.icacheStallCycles           6353929                       # Number of cycles fetch is stalled on an Icache miss
system.cpu0.fetch.Insts                      48699119                       # Number of instructions fetch has processed
system.cpu0.fetch.Branches                    5689816                       # Number of branches that fetch encountered
system.cpu0.fetch.predictedBranches           3600441                       # Number of branches that fetch has predicted taken
system.cpu0.fetch.Cycles                     24066846                       # Number of cycles fetch has run and was not squashing or blocked
system.cpu0.fetch.SquashCycles                 200684                       # Number of cycles fetch has spent squashing
system.cpu0.fetch.MiscStallCycles                  51                       # Number of cycles fetch has spent waiting on interrupts, or bad addresses, or out of MSHRs
system.cpu0.fetch.PendingTrapStallCycles          315                       # Number of stall cycles due to pending traps
system.cpu0.fetch.CacheLines                  6280062                       # Number of cache lines fetched
system.cpu0.fetch.IcacheSquashes                25303                       # Number of outstanding Icache misses that were squashed
system.cpu0.fetch.rateDist::samples          30521483                       # Number of instructions fetched each cycle (Total)
system.cpu0.fetch.rateDist::mean             2.774131                       # Number of instructions fetched each cycle (Total)
system.cpu0.fetch.rateDist::stdev            3.391972                       # Number of instructions fetched each cycle (Total)
system.cpu0.fetch.rateDist::underflows              0      0.00%      0.00% # Number of instructions fetched each cycle (Total)
system.cpu0.fetch.rateDist::0                16126845     52.84%     52.84% # Number of instructions fetched each cycle (Total)
system.cpu0.fetch.rateDist::1                  803616      2.63%     55.47% # Number of instructions fetched each cycle (Total)
system.cpu0.fetch.rateDist::2                 1656044      5.43%     60.90% # Number of instructions fetched each cycle (Total)
system.cpu0.fetch.rateDist::3                  786955      2.58%     63.47% # Number of instructions fetched each cycle (Total)
system.cpu0.fetch.rateDist::4                 1016926      3.33%     66.81% # Number of instructions fetched each cycle (Total)
system.cpu0.fetch.rateDist::5                 1570131      5.14%     71.95% # Number of instructions fetched each cycle (Total)
system.cpu0.fetch.rateDist::6                  648000      2.12%     74.07% # Number of instructions fetched each cycle (Total)
system.cpu0.fetch.rateDist::7                  916056      3.00%     77.08% # Number of instructions fetched each cycle (Total)
system.cpu0.fetch.rateDist::8                 6996910     22.92%    100.00% # Number of instructions fetched each cycle (Total)
system.cpu0.fetch.rateDist::overflows               0      0.00%    100.00% # Number of instructions fetched each cycle (Total)
system.cpu0.fetch.rateDist::min_value               0                       # Number of instructions fetched each cycle (Total)
system.cpu0.fetch.rateDist::max_value               8                       # Number of instructions fetched each cycle (Total)
system.cpu0.fetch.rateDist::total            30521483                       # Number of instructions fetched each cycle (Total)
system.cpu0.fetch.branchRate                 0.186339                       # Number of branch fetches per cycle
system.cpu0.fetch.rate                       1.594879                       # Number of inst fetches per cycle
system.cpu0.decode.IdleCycles                 3806546                       # Number of cycles decode is idle
system.cpu0.decode.BlockedCycles             15579695                       # Number of cycles decode is blocked
system.cpu0.decode.RunCycles                  6335402                       # Number of cycles decode is running
system.cpu0.decode.UnblockCycles              4699498                       # Number of cycles decode is unblocking
system.cpu0.decode.SquashCycles                100342                       # Number of cycles decode is squashing
system.cpu0.decode.DecodedInsts              81783289                       # Number of instructions handled by decode
system.cpu0.rename.SquashCycles                100342                       # Number of cycles rename is squashing
system.cpu0.rename.IdleCycles                 5665606                       # Number of cycles rename is idle
system.cpu0.rename.BlockCycles                4787098                       # Number of cycles rename is blocking
system.cpu0.rename.serializeStallCycles          2595                       # count of cycles rename stalled for serializing inst
system.cpu0.rename.RunCycles                  9052886                       # Number of cycles rename is running
system.cpu0.rename.UnblockCycles             10912956                       # Number of cycles rename is unblocking
system.cpu0.rename.RenamedInsts              81179416                       # Number of instructions processed by rename
system.cpu0.rename.ROBFullEvents               671925                       # Number of times rename has blocked due to ROB full
system.cpu0.rename.IQFullEvents               8810549                       # Number of times rename has blocked due to IQ full
system.cpu0.rename.LQFullEvents                  8091                       # Number of times rename has blocked due to LQ full
system.cpu0.rename.SQFullEvents                473513                       # Number of times rename has blocked due to SQ full
system.cpu0.rename.RenamedOperands           88906365                       # Number of destination operands rename has renamed
system.cpu0.rename.RenameLookups            193942969                       # Number of register rename lookups that rename has made
system.cpu0.rename.int_rename_lookups        65927599                       # Number of integer rename lookups
system.cpu0.rename.fp_rename_lookups         75633151                       # Number of floating rename lookups
system.cpu0.rename.CommittedMaps             78741864                       # Number of HB maps that are committed
system.cpu0.rename.UndoneMaps                10164566                       # Number of HB maps that are undone due to squashing
system.cpu0.rename.serializingInsts               294                       # count of serializing insts renamed
system.cpu0.rename.tempSerializingInsts           301                       # count of temporary serializing insts renamed
system.cpu0.rename.skidInsts                 25373010                       # count of insts added to the skid buffer
system.cpu0.memDep0.insertedLoads             9843470                       # Number of loads inserted to the mem dependence unit.
system.cpu0.memDep0.insertedStores            2245414                       # Number of stores inserted to the mem dependence unit.
system.cpu0.memDep0.conflictingLoads           451082                       # Number of conflicting loads.
system.cpu0.memDep0.conflictingStores          194618                       # Number of conflicting stores.
system.cpu0.iq.iqInstsAdded                  80612658                       # Number of instructions added to the IQ (excludes non-spec)
system.cpu0.iq.iqNonSpecInstsAdded               2591                       # Number of non-speculative instructions added to the IQ
system.cpu0.iq.iqInstsIssued                 76051992                       # Number of instructions issued
system.cpu0.iq.iqSquashedInstsIssued             1948                       # Number of squashed instructions issued
system.cpu0.iq.iqSquashedInstsExamined        8616166                       # Number of squashed instructions iterated over during squash; mainly for profiling
system.cpu0.iq.iqSquashedOperandsExamined     12418100                       # Number of squashed operands that are examined and possibly removed from graph
system.cpu0.iq.iqSquashedNonSpecRemoved          2537                       # Number of squashed non-spec instructions that were removed
system.cpu0.iq.issued_per_cycle::samples     30521483                       # Number of insts issued each cycle
system.cpu0.iq.issued_per_cycle::mean        2.491753                       # Number of insts issued each cycle
system.cpu0.iq.issued_per_cycle::stdev       2.035356                       # Number of insts issued each cycle
system.cpu0.iq.issued_per_cycle::underflows            0      0.00%      0.00% # Number of insts issued each cycle
system.cpu0.iq.issued_per_cycle::0            5771268     18.91%     18.91% # Number of insts issued each cycle
system.cpu0.iq.issued_per_cycle::1            5458729     17.88%     36.79% # Number of insts issued each cycle
system.cpu0.iq.issued_per_cycle::2            5927764     19.42%     56.22% # Number of insts issued each cycle
system.cpu0.iq.issued_per_cycle::3            4963569     16.26%     72.48% # Number of insts issued each cycle
system.cpu0.iq.issued_per_cycle::4            3149755     10.32%     82.80% # Number of insts issued each cycle
system.cpu0.iq.issued_per_cycle::5            2341858      7.67%     90.47% # Number of insts issued each cycle
system.cpu0.iq.issued_per_cycle::6            1478207      4.84%     95.31% # Number of insts issued each cycle
system.cpu0.iq.issued_per_cycle::7             773188      2.53%     97.85% # Number of insts issued each cycle
system.cpu0.iq.issued_per_cycle::8             657145      2.15%    100.00% # Number of insts issued each cycle
system.cpu0.iq.issued_per_cycle::overflows            0      0.00%    100.00% # Number of insts issued each cycle
system.cpu0.iq.issued_per_cycle::min_value            0                       # Number of insts issued each cycle
system.cpu0.iq.issued_per_cycle::max_value            8                       # Number of insts issued each cycle
system.cpu0.iq.issued_per_cycle::total       30521483                       # Number of insts issued each cycle
system.cpu0.iq.fu_full::No_OpClass                  0      0.00%      0.00% # attempts to use FU when none available
system.cpu0.iq.fu_full::IntAlu                  63039     32.36%     32.36% # attempts to use FU when none available
system.cpu0.iq.fu_full::IntMult                     0      0.00%     32.36% # attempts to use FU when none available
system.cpu0.iq.fu_full::IntDiv                      0      0.00%     32.36% # attempts to use FU when none available
system.cpu0.iq.fu_full::FloatAdd               111682     57.34%     89.70% # attempts to use FU when none available
system.cpu0.iq.fu_full::FloatCmp                    0      0.00%     89.70% # attempts to use FU when none available
system.cpu0.iq.fu_full::FloatCvt                    0      0.00%     89.70% # attempts to use FU when none available
system.cpu0.iq.fu_full::FloatMult                   0      0.00%     89.70% # attempts to use FU when none available
system.cpu0.iq.fu_full::FloatMultAcc                0      0.00%     89.70% # attempts to use FU when none available
system.cpu0.iq.fu_full::FloatDiv                    0      0.00%     89.70% # attempts to use FU when none available
system.cpu0.iq.fu_full::FloatMisc                   0      0.00%     89.70% # attempts to use FU when none available
system.cpu0.iq.fu_full::FloatSqrt                   0      0.00%     89.70% # attempts to use FU when none available
system.cpu0.iq.fu_full::SimdAdd                     0      0.00%     89.70% # attempts to use FU when none available
system.cpu0.iq.fu_full::SimdAddAcc                  0      0.00%     89.70% # attempts to use FU when none available
system.cpu0.iq.fu_full::SimdAlu                     0      0.00%     89.70% # attempts to use FU when none available
system.cpu0.iq.fu_full::SimdCmp                     0      0.00%     89.70% # attempts to use FU when none available
system.cpu0.iq.fu_full::SimdCvt                     0      0.00%     89.70% # attempts to use FU when none available
system.cpu0.iq.fu_full::SimdMisc                    0      0.00%     89.70% # attempts to use FU when none available
system.cpu0.iq.fu_full::SimdMult                    0      0.00%     89.70% # attempts to use FU when none available
system.cpu0.iq.fu_full::SimdMultAcc                 0      0.00%     89.70% # attempts to use FU when none available
system.cpu0.iq.fu_full::SimdShift                   0      0.00%     89.70% # attempts to use FU when none available
system.cpu0.iq.fu_full::SimdShiftAcc                0      0.00%     89.70% # attempts to use FU when none available
system.cpu0.iq.fu_full::SimdSqrt                    0      0.00%     89.70% # attempts to use FU when none available
system.cpu0.iq.fu_full::SimdFloatAdd                0      0.00%     89.70% # attempts to use FU when none available
system.cpu0.iq.fu_full::SimdFloatAlu                0      0.00%     89.70% # attempts to use FU when none available
system.cpu0.iq.fu_full::SimdFloatCmp                0      0.00%     89.70% # attempts to use FU when none available
system.cpu0.iq.fu_full::SimdFloatCvt                0      0.00%     89.70% # attempts to use FU when none available
system.cpu0.iq.fu_full::SimdFloatDiv                0      0.00%     89.70% # attempts to use FU when none available
system.cpu0.iq.fu_full::SimdFloatMisc               0      0.00%     89.70% # attempts to use FU when none available
system.cpu0.iq.fu_full::SimdFloatMult               0      0.00%     89.70% # attempts to use FU when none available
system.cpu0.iq.fu_full::SimdFloatMultAcc            0      0.00%     89.70% # attempts to use FU when none available
system.cpu0.iq.fu_full::SimdFloatSqrt               0      0.00%     89.70% # attempts to use FU when none available
system.cpu0.iq.fu_full::MemRead                  2541      1.30%     91.00% # attempts to use FU when none available
system.cpu0.iq.fu_full::MemWrite                  171      0.09%     91.09% # attempts to use FU when none available
system.cpu0.iq.fu_full::FloatMemRead            17197      8.83%     99.92% # attempts to use FU when none available
system.cpu0.iq.fu_full::FloatMemWrite             156      0.08%    100.00% # attempts to use FU when none available
system.cpu0.iq.fu_full::IprAccess                   0      0.00%    100.00% # attempts to use FU when none available
system.cpu0.iq.fu_full::InstPrefetch                0      0.00%    100.00% # attempts to use FU when none available
system.cpu0.iq.FU_type_0::No_OpClass            27097      0.04%      0.04% # Type of FU issued
system.cpu0.iq.FU_type_0::IntAlu             41050357     53.98%     54.01% # Type of FU issued
system.cpu0.iq.FU_type_0::IntMult                1264      0.00%     54.01% # Type of FU issued
system.cpu0.iq.FU_type_0::IntDiv                   76      0.00%     54.01% # Type of FU issued
system.cpu0.iq.FU_type_0::FloatAdd           23394573     30.76%     84.78% # Type of FU issued
system.cpu0.iq.FU_type_0::FloatCmp                  0      0.00%     84.78% # Type of FU issued
system.cpu0.iq.FU_type_0::FloatCvt                  0      0.00%     84.78% # Type of FU issued
system.cpu0.iq.FU_type_0::FloatMult                 0      0.00%     84.78% # Type of FU issued
system.cpu0.iq.FU_type_0::FloatMultAcc              0      0.00%     84.78% # Type of FU issued
system.cpu0.iq.FU_type_0::FloatDiv                  0      0.00%     84.78% # Type of FU issued
system.cpu0.iq.FU_type_0::FloatMisc                 0      0.00%     84.78% # Type of FU issued
system.cpu0.iq.FU_type_0::FloatSqrt                 0      0.00%     84.78% # Type of FU issued
system.cpu0.iq.FU_type_0::SimdAdd                   0      0.00%     84.78% # Type of FU issued
system.cpu0.iq.FU_type_0::SimdAddAcc                0      0.00%     84.78% # Type of FU issued
system.cpu0.iq.FU_type_0::SimdAlu                   0      0.00%     84.78% # Type of FU issued
system.cpu0.iq.FU_type_0::SimdCmp                   0      0.00%     84.78% # Type of FU issued
system.cpu0.iq.FU_type_0::SimdCvt                   0      0.00%     84.78% # Type of FU issued
system.cpu0.iq.FU_type_0::SimdMisc                  0      0.00%     84.78% # Type of FU issued
system.cpu0.iq.FU_type_0::SimdMult                  0      0.00%     84.78% # Type of FU issued
system.cpu0.iq.FU_type_0::SimdMultAcc               0      0.00%     84.78% # Type of FU issued
system.cpu0.iq.FU_type_0::SimdShift                 0      0.00%     84.78% # Type of FU issued
system.cpu0.iq.FU_type_0::SimdShiftAcc              0      0.00%     84.78% # Type of FU issued
system.cpu0.iq.FU_type_0::SimdSqrt                  0      0.00%     84.78% # Type of FU issued
system.cpu0.iq.FU_type_0::SimdFloatAdd              0      0.00%     84.78% # Type of FU issued
system.cpu0.iq.FU_type_0::SimdFloatAlu              0      0.00%     84.78% # Type of FU issued
system.cpu0.iq.FU_type_0::SimdFloatCmp              0      0.00%     84.78% # Type of FU issued
system.cpu0.iq.FU_type_0::SimdFloatCvt              0      0.00%     84.78% # Type of FU issued
system.cpu0.iq.FU_type_0::SimdFloatDiv              0      0.00%     84.78% # Type of FU issued
system.cpu0.iq.FU_type_0::SimdFloatMisc             0      0.00%     84.78% # Type of FU issued
system.cpu0.iq.FU_type_0::SimdFloatMult             0      0.00%     84.78% # Type of FU issued
system.cpu0.iq.FU_type_0::SimdFloatMultAcc            0      0.00%     84.78% # Type of FU issued
system.cpu0.iq.FU_type_0::SimdFloatSqrt             0      0.00%     84.78% # Type of FU issued
system.cpu0.iq.FU_type_0::MemRead             2207042      2.90%     87.68% # Type of FU issued
system.cpu0.iq.FU_type_0::MemWrite            1544997      2.03%     89.71% # Type of FU issued
system.cpu0.iq.FU_type_0::FloatMemRead        7137987      9.39%     99.09% # Type of FU issued
system.cpu0.iq.FU_type_0::FloatMemWrite        688599      0.91%    100.00% # Type of FU issued
system.cpu0.iq.FU_type_0::IprAccess                 0      0.00%    100.00% # Type of FU issued
system.cpu0.iq.FU_type_0::InstPrefetch              0      0.00%    100.00% # Type of FU issued
system.cpu0.iq.FU_type_0::total              76051992                       # Type of FU issued
system.cpu0.iq.rate                          2.490675                       # Inst issue rate
system.cpu0.iq.fu_busy_cnt                     194786                       # FU busy when requested
system.cpu0.iq.fu_busy_rate                  0.002561                       # FU busy rate (busy events/executed inst)
system.cpu0.iq.int_inst_queue_reads         106187334                       # Number of integer instruction queue reads
system.cpu0.iq.int_inst_queue_writes         41384355                       # Number of integer instruction queue writes
system.cpu0.iq.int_inst_queue_wakeup_accesses     37701907                       # Number of integer instruction queue wakeup accesses
system.cpu0.iq.fp_inst_queue_reads           76634870                       # Number of floating instruction queue reads
system.cpu0.iq.fp_inst_queue_writes          47847211                       # Number of floating instruction queue writes
system.cpu0.iq.fp_inst_queue_wakeup_accesses     38091210                       # Number of floating instruction queue wakeup accesses
system.cpu0.iq.vec_inst_queue_reads                 0                       # Number of vector instruction queue reads
system.cpu0.iq.vec_inst_queue_writes                0                       # Number of vector instruction queue writes
system.cpu0.iq.vec_inst_queue_wakeup_accesses            0                       # Number of vector instruction queue wakeup accesses
system.cpu0.iq.int_alu_accesses              37829143                       # Number of integer alu accesses
system.cpu0.iq.fp_alu_accesses               38390538                       # Number of floating point alu accesses
system.cpu0.iq.vec_alu_accesses                     0                       # Number of vector alu accesses
system.cpu0.iew.lsq.thread0.forwLoads          372275                       # Number of loads that had data forwarded from stores
system.cpu0.iew.lsq.thread0.invAddrLoads            0                       # Number of loads ignored due to an invalid address
system.cpu0.iew.lsq.thread0.squashedLoads      1124659                       # Number of loads squashed
system.cpu0.iew.lsq.thread0.ignoredResponses           21                       # Number of memory responses ignored because the instruction is squashed
system.cpu0.iew.lsq.thread0.memOrderViolation          161                       # Number of memory ordering violations
system.cpu0.iew.lsq.thread0.squashedStores        30006                       # Number of stores squashed
system.cpu0.iew.lsq.thread0.invAddrSwpfs            0                       # Number of software prefetches ignored due to an invalid address
system.cpu0.iew.lsq.thread0.blockedLoads            0                       # Number of blocked loads due to partial load-store forwarding
system.cpu0.iew.lsq.thread0.rescheduledLoads           12                       # Number of loads that were rescheduled
system.cpu0.iew.lsq.thread0.cacheBlocked           47                       # Number of times an access to memory failed due to the cache being blocked
system.cpu0.iew.iewIdleCycles                       0                       # Number of cycles IEW is idle
system.cpu0.iew.iewSquashCycles                100342                       # Number of cycles IEW is squashing
system.cpu0.iew.iewBlockCycles                2376836                       # Number of cycles IEW is blocking
system.cpu0.iew.iewUnblockCycles               339485                       # Number of cycles IEW is unblocking
system.cpu0.iew.iewDispatchedInsts           80615249                       # Number of instructions dispatched to IQ
system.cpu0.iew.iewDispSquashedInsts             3924                       # Number of squashed instructions skipped by dispatch
system.cpu0.iew.iewDispLoadInsts              9843470                       # Number of dispatched load instructions
system.cpu0.iew.iewDispStoreInsts             2245414                       # Number of dispatched store instructions
system.cpu0.iew.iewDispNonSpecInsts              1137                       # Number of dispatched non-speculative instructions
system.cpu0.iew.iewIQFullEvents                 91196                       # Number of times the IQ has become full, causing a stall
system.cpu0.iew.iewLSQFullEvents               239300                       # Number of times the LSQ has become full, causing a stall
system.cpu0.iew.memOrderViolationEvents           161                       # Number of memory order violations
system.cpu0.iew.predictedTakenIncorrect         69036                       # Number of branches that were predicted taken incorrectly
system.cpu0.iew.predictedNotTakenIncorrect        34307                       # Number of branches that were predicted not taken incorrectly
system.cpu0.iew.branchMispredicts              103343                       # Number of branch mispredicts detected at execute
system.cpu0.iew.iewExecutedInsts             75811704                       # Number of executed instructions
system.cpu0.iew.iewExecLoadInsts              9336570                       # Number of load instructions executed
system.cpu0.iew.iewExecSquashedInsts           240291                       # Number of squashed instructions skipped in execute
system.cpu0.iew.exec_swp                            0                       # number of swp insts executed
system.cpu0.iew.exec_nop                            0                       # number of nop insts executed
system.cpu0.iew.exec_refs                    11567669                       # number of memory reference insts executed
system.cpu0.iew.exec_branches                 5198947                       # Number of branches executed
system.cpu0.iew.exec_stores                   2231099                       # Number of stores executed
system.cpu0.iew.exec_rate                    2.482806                       # Inst execution rate
system.cpu0.iew.wb_sent                      75801826                       # cumulative count of insts sent to commit
system.cpu0.iew.wb_count                     75793117                       # cumulative count of insts written-back
system.cpu0.iew.wb_producers                 57311723                       # num instructions producing a value
system.cpu0.iew.wb_consumers                 99805181                       # num instructions consuming a value
system.cpu0.iew.wb_rate                      2.482197                       # insts written-back per cycle
system.cpu0.iew.wb_fanout                    0.574236                       # average fanout of values written-back
system.cpu0.commit.commitSquashedInsts        8616249                       # The number of squashed insts skipped by commit
system.cpu0.commit.commitNonSpecStalls             54                       # The number of times commit has been forced to stall to communicate backwards
system.cpu0.commit.branchMispredicts           100215                       # The number of times a branch was mispredicted
system.cpu0.commit.committed_per_cycle::samples     29409944                       # Number of insts commited each cycle
system.cpu0.commit.committed_per_cycle::mean     2.448123                       # Number of insts commited each cycle
system.cpu0.commit.committed_per_cycle::stdev     2.966863                       # Number of insts commited each cycle
system.cpu0.commit.committed_per_cycle::underflows            0      0.00%      0.00% # Number of insts commited each cycle
system.cpu0.commit.committed_per_cycle::0     10519306     35.77%     35.77% # Number of insts commited each cycle
system.cpu0.commit.committed_per_cycle::1      7306416     24.84%     60.61% # Number of insts commited each cycle
system.cpu0.commit.committed_per_cycle::2       973674      3.31%     63.92% # Number of insts commited each cycle
system.cpu0.commit.committed_per_cycle::3      2962932     10.07%     74.00% # Number of insts commited each cycle
system.cpu0.commit.committed_per_cycle::4      1230342      4.18%     78.18% # Number of insts commited each cycle
system.cpu0.commit.committed_per_cycle::5       331928      1.13%     79.31% # Number of insts commited each cycle
system.cpu0.commit.committed_per_cycle::6       465714      1.58%     80.89% # Number of insts commited each cycle
system.cpu0.commit.committed_per_cycle::7       475743      1.62%     82.51% # Number of insts commited each cycle
system.cpu0.commit.committed_per_cycle::8      5143889     17.49%    100.00% # Number of insts commited each cycle
system.cpu0.commit.committed_per_cycle::overflows            0      0.00%    100.00% # Number of insts commited each cycle
system.cpu0.commit.committed_per_cycle::min_value            0                       # Number of insts commited each cycle
system.cpu0.commit.committed_per_cycle::max_value            8                       # Number of insts commited each cycle
system.cpu0.commit.committed_per_cycle::total     29409944                       # Number of insts commited each cycle
system.cpu0.commit.committedInsts            41018225                       # Number of instructions committed
system.cpu0.commit.committedOps              71999165                       # Number of ops (including micro ops) committed
system.cpu0.commit.swp_count                        0                       # Number of s/w prefetches committed
system.cpu0.commit.refs                      10934233                       # Number of memory references committed
system.cpu0.commit.loads                      8718824                       # Number of loads committed
system.cpu0.commit.membars                         20                       # Number of memory barriers committed
system.cpu0.commit.branches                   5101069                       # Number of branches committed
system.cpu0.commit.vec_insts                        0                       # Number of committed Vector instructions.
system.cpu0.commit.fp_insts                  35708148                       # Number of committed floating point instructions.
system.cpu0.commit.int_insts                 45760879                       # Number of committed integer instructions.
system.cpu0.commit.function_calls              550644                       # Number of function calls committed.
system.cpu0.commit.op_class_0::No_OpClass        23305      0.03%      0.03% # Class of committed instruction
system.cpu0.commit.op_class_0::IntAlu        38868888     53.99%     54.02% # Class of committed instruction
system.cpu0.commit.op_class_0::IntMult           1163      0.00%     54.02% # Class of committed instruction
system.cpu0.commit.op_class_0::IntDiv              37      0.00%     54.02% # Class of committed instruction
system.cpu0.commit.op_class_0::FloatAdd      22171539     30.79%     84.81% # Class of committed instruction
system.cpu0.commit.op_class_0::FloatCmp             0      0.00%     84.81% # Class of committed instruction
system.cpu0.commit.op_class_0::FloatCvt             0      0.00%     84.81% # Class of committed instruction
system.cpu0.commit.op_class_0::FloatMult            0      0.00%     84.81% # Class of committed instruction
system.cpu0.commit.op_class_0::FloatMultAcc            0      0.00%     84.81% # Class of committed instruction
system.cpu0.commit.op_class_0::FloatDiv             0      0.00%     84.81% # Class of committed instruction
system.cpu0.commit.op_class_0::FloatMisc            0      0.00%     84.81% # Class of committed instruction
system.cpu0.commit.op_class_0::FloatSqrt            0      0.00%     84.81% # Class of committed instruction
system.cpu0.commit.op_class_0::SimdAdd              0      0.00%     84.81% # Class of committed instruction
system.cpu0.commit.op_class_0::SimdAddAcc            0      0.00%     84.81% # Class of committed instruction
system.cpu0.commit.op_class_0::SimdAlu              0      0.00%     84.81% # Class of committed instruction
system.cpu0.commit.op_class_0::SimdCmp              0      0.00%     84.81% # Class of committed instruction
system.cpu0.commit.op_class_0::SimdCvt              0      0.00%     84.81% # Class of committed instruction
system.cpu0.commit.op_class_0::SimdMisc             0      0.00%     84.81% # Class of committed instruction
system.cpu0.commit.op_class_0::SimdMult             0      0.00%     84.81% # Class of committed instruction
system.cpu0.commit.op_class_0::SimdMultAcc            0      0.00%     84.81% # Class of committed instruction
system.cpu0.commit.op_class_0::SimdShift            0      0.00%     84.81% # Class of committed instruction
system.cpu0.commit.op_class_0::SimdShiftAcc            0      0.00%     84.81% # Class of committed instruction
system.cpu0.commit.op_class_0::SimdSqrt             0      0.00%     84.81% # Class of committed instruction
system.cpu0.commit.op_class_0::SimdFloatAdd            0      0.00%     84.81% # Class of committed instruction
system.cpu0.commit.op_class_0::SimdFloatAlu            0      0.00%     84.81% # Class of committed instruction
system.cpu0.commit.op_class_0::SimdFloatCmp            0      0.00%     84.81% # Class of committed instruction
system.cpu0.commit.op_class_0::SimdFloatCvt            0      0.00%     84.81% # Class of committed instruction
system.cpu0.commit.op_class_0::SimdFloatDiv            0      0.00%     84.81% # Class of committed instruction
system.cpu0.commit.op_class_0::SimdFloatMisc            0      0.00%     84.81% # Class of committed instruction
system.cpu0.commit.op_class_0::SimdFloatMult            0      0.00%     84.81% # Class of committed instruction
system.cpu0.commit.op_class_0::SimdFloatMultAcc            0      0.00%     84.81% # Class of committed instruction
system.cpu0.commit.op_class_0::SimdFloatSqrt            0      0.00%     84.81% # Class of committed instruction
system.cpu0.commit.op_class_0::MemRead        2174852      3.02%     87.83% # Class of committed instruction
system.cpu0.commit.op_class_0::MemWrite       1528970      2.12%     89.96% # Class of committed instruction
system.cpu0.commit.op_class_0::FloatMemRead      6543972      9.09%     99.05% # Class of committed instruction
system.cpu0.commit.op_class_0::FloatMemWrite       686439      0.95%    100.00% # Class of committed instruction
system.cpu0.commit.op_class_0::IprAccess            0      0.00%    100.00% # Class of committed instruction
system.cpu0.commit.op_class_0::InstPrefetch            0      0.00%    100.00% # Class of committed instruction
system.cpu0.commit.op_class_0::total         71999165                       # Class of committed instruction
system.cpu0.commit.bw_lim_events              5143889                       # number cycles where commit BW limit reached
system.cpu0.rob.rob_reads                   104881469                       # The number of ROB reads
system.cpu0.rob.rob_writes                  162342581                       # The number of ROB writes
system.cpu0.timesIdled                            120                       # Number of times that the entire CPU went into an idle state and unscheduled itself
system.cpu0.idleCycles                          13205                       # Total number of cycles that the CPU has spent unscheduled due to idling
system.cpu0.committedInsts                   41018225                       # Number of Instructions Simulated
system.cpu0.committedOps                     71999165                       # Number of Ops (including micro ops) Simulated
system.cpu0.cpi                              0.744418                       # CPI: Cycles Per Instruction
system.cpu0.cpi_total                        0.744418                       # CPI: Total CPI of All Threads
system.cpu0.ipc                              1.343332                       # IPC: Instructions Per Cycle
system.cpu0.ipc_total                        1.343332                       # IPC: Total IPC of All Threads
system.cpu0.int_regfile_reads                62298974                       # number of integer regfile reads
system.cpu0.int_regfile_writes               32311211                       # number of integer regfile writes
system.cpu0.fp_regfile_reads                 67409179                       # number of floating regfile reads
system.cpu0.fp_regfile_writes                34152913                       # number of floating regfile writes
system.cpu0.cc_regfile_reads                 24107252                       # number of cc regfile reads
system.cpu0.cc_regfile_writes                16163840                       # number of cc regfile writes
system.cpu0.misc_regfile_reads               25732576                       # number of misc regfile reads
system.cpu0.dcache.tags.pwrStateResidencyTicks::UNDEFINED  15267344125                       # Cumulative time (in ticks) in various power states
system.cpu0.dcache.tags.replacements            14838                       # number of replacements
system.cpu0.dcache.tags.tagsinuse                1024                       # Cycle average of tags in use
system.cpu0.dcache.tags.total_refs          270416444                       # Total number of references to valid blocks.
system.cpu0.dcache.tags.sampled_refs            14838                       # Sample count of references to valid blocks.
system.cpu0.dcache.tags.avg_refs         18224.588489                       # Average number of references to valid blocks.
system.cpu0.dcache.tags.warmup_cycle                0                       # Cycle when the warmup percentage was hit.
system.cpu0.dcache.tags.occ_blocks::cpu0.data         1024                       # Average occupied blocks per requestor
system.cpu0.dcache.tags.occ_percent::cpu0.data            1                       # Average percentage of cache occupancy
system.cpu0.dcache.tags.occ_percent::total            1                       # Average percentage of cache occupancy
system.cpu0.dcache.tags.occ_task_id_blocks::1024         1024                       # Occupied blocks per task id
system.cpu0.dcache.tags.age_task_id_blocks_1024::0            4                       # Occupied blocks per task id
system.cpu0.dcache.tags.age_task_id_blocks_1024::1           30                       # Occupied blocks per task id
system.cpu0.dcache.tags.age_task_id_blocks_1024::2          294                       # Occupied blocks per task id
system.cpu0.dcache.tags.age_task_id_blocks_1024::3          696                       # Occupied blocks per task id
system.cpu0.dcache.tags.occ_task_id_percent::1024            1                       # Percentage of cache occupancy per task id
system.cpu0.dcache.tags.tag_accesses         44862402                       # Number of tag accesses
system.cpu0.dcache.tags.data_accesses        44862402                       # Number of data accesses
system.cpu0.dcache.pwrStateResidencyTicks::UNDEFINED  15267344125                       # Cumulative time (in ticks) in various power states
system.cpu0.dcache.ReadReq_hits::cpu0.data      8982710                       # number of ReadReq hits
system.cpu0.dcache.ReadReq_hits::total        8982710                       # number of ReadReq hits
system.cpu0.dcache.WriteReq_hits::cpu0.data      2213161                       # number of WriteReq hits
system.cpu0.dcache.WriteReq_hits::total       2213161                       # number of WriteReq hits
system.cpu0.dcache.demand_hits::cpu0.data     11195871                       # number of demand (read+write) hits
system.cpu0.dcache.demand_hits::total        11195871                       # number of demand (read+write) hits
system.cpu0.dcache.overall_hits::cpu0.data     11195871                       # number of overall hits
system.cpu0.dcache.overall_hits::total       11195871                       # number of overall hits
system.cpu0.dcache.ReadReq_misses::cpu0.data        11510                       # number of ReadReq misses
system.cpu0.dcache.ReadReq_misses::total        11510                       # number of ReadReq misses
system.cpu0.dcache.WriteReq_misses::cpu0.data         4510                       # number of WriteReq misses
system.cpu0.dcache.WriteReq_misses::total         4510                       # number of WriteReq misses
system.cpu0.dcache.demand_misses::cpu0.data        16020                       # number of demand (read+write) misses
system.cpu0.dcache.demand_misses::total         16020                       # number of demand (read+write) misses
system.cpu0.dcache.overall_misses::cpu0.data        16020                       # number of overall misses
system.cpu0.dcache.overall_misses::total        16020                       # number of overall misses
system.cpu0.dcache.ReadReq_miss_latency::cpu0.data   1067598000                       # number of ReadReq miss cycles
system.cpu0.dcache.ReadReq_miss_latency::total   1067598000                       # number of ReadReq miss cycles
system.cpu0.dcache.WriteReq_miss_latency::cpu0.data    361757499                       # number of WriteReq miss cycles
system.cpu0.dcache.WriteReq_miss_latency::total    361757499                       # number of WriteReq miss cycles
system.cpu0.dcache.demand_miss_latency::cpu0.data   1429355499                       # number of demand (read+write) miss cycles
system.cpu0.dcache.demand_miss_latency::total   1429355499                       # number of demand (read+write) miss cycles
system.cpu0.dcache.overall_miss_latency::cpu0.data   1429355499                       # number of overall miss cycles
system.cpu0.dcache.overall_miss_latency::total   1429355499                       # number of overall miss cycles
system.cpu0.dcache.ReadReq_accesses::cpu0.data      8994220                       # number of ReadReq accesses(hits+misses)
system.cpu0.dcache.ReadReq_accesses::total      8994220                       # number of ReadReq accesses(hits+misses)
system.cpu0.dcache.WriteReq_accesses::cpu0.data      2217671                       # number of WriteReq accesses(hits+misses)
system.cpu0.dcache.WriteReq_accesses::total      2217671                       # number of WriteReq accesses(hits+misses)
system.cpu0.dcache.demand_accesses::cpu0.data     11211891                       # number of demand (read+write) accesses
system.cpu0.dcache.demand_accesses::total     11211891                       # number of demand (read+write) accesses
system.cpu0.dcache.overall_accesses::cpu0.data     11211891                       # number of overall (read+write) accesses
system.cpu0.dcache.overall_accesses::total     11211891                       # number of overall (read+write) accesses
system.cpu0.dcache.ReadReq_miss_rate::cpu0.data     0.001280                       # miss rate for ReadReq accesses
[...]
system.l2.demand_miss_rate::cpu0.inst        0.458333                       # miss rate for demand accesses
system.l2.demand_miss_rate::cpu0.data        0.927214                       # miss rate for demand accesses
system.l2.demand_miss_rate::total            0.917558                       # miss rate for demand accesses
system.l2.overall_miss_rate::cpu0.inst       0.458333                       # miss rate for overall accesses
system.l2.overall_miss_rate::cpu0.data       0.927214                       # miss rate for overall accesses
system.l2.overall_miss_rate::total           0.917558                       # miss rate for overall accesses
system.l2.ReadExReq_avg_miss_latency::cpu0.data 87668.024440                       # average ReadExReq miss latency
system.l2.ReadExReq_avg_miss_latency::total 87668.024440                       # average ReadExReq miss latency
system.l2.ReadCleanReq_avg_miss_latency::cpu0.inst 114248.251748                       # average ReadCleanReq miss latency
system.l2.ReadCleanReq_avg_miss_latency::total 114248.251748                       # average ReadCleanReq miss latency
system.l2.ReadSharedReq_avg_miss_latency::cpu0.data 94450.508647                       # average ReadSharedReq miss latency
system.l2.ReadSharedReq_avg_miss_latency::total 94450.508647                       # average ReadSharedReq miss latency
system.l2.demand_avg_miss_latency::cpu0.inst 114248.251748                       # average overall miss latency
system.l2.demand_avg_miss_latency::cpu0.data 92514.064544                       # average overall miss latency
system.l2.demand_avg_miss_latency::total 92737.644774                       # average overall miss latency
system.l2.overall_avg_miss_latency::cpu0.inst 114248.251748                       # average overall miss latency
system.l2.overall_avg_miss_latency::cpu0.data 92514.064544                       # average overall miss latency
system.l2.overall_avg_miss_latency::total 92737.644774                       # average overall miss latency
system.l2.blocked_cycles::no_mshrs                  0                       # number of cycles access was blocked
system.l2.blocked_cycles::no_targets                0                       # number of cycles access was blocked
system.l2.blocked::no_mshrs                         0                       # number of cycles access was blocked
system.l2.blocked::no_targets                       0                       # number of cycles access was blocked
system.l2.avg_blocked_cycles::no_mshrs            nan                       # average number of cycles each access was blocked
system.l2.avg_blocked_cycles::no_targets          nan                       # average number of cycles each access was blocked
system.l2.writebacks::writebacks                13283                       # number of writebacks
system.l2.writebacks::total                     13283                       # number of writebacks
system.l2.CleanEvict_mshr_misses::writebacks          213                       # number of CleanEvict MSHR misses
system.l2.CleanEvict_mshr_misses::total           213                       # number of CleanEvict MSHR misses
system.l2.ReadExReq_mshr_misses::cpu0.data         3928                       # number of ReadExReq MSHR misses
system.l2.ReadExReq_mshr_misses::total           3928                       # number of ReadExReq MSHR misses
system.l2.ReadCleanReq_mshr_misses::cpu0.inst          143                       # number of ReadCleanReq MSHR misses
system.l2.ReadCleanReq_mshr_misses::total          143                       # number of ReadCleanReq MSHR misses
system.l2.ReadSharedReq_mshr_misses::cpu0.data         9830                       # number of ReadSharedReq MSHR misses
system.l2.ReadSharedReq_mshr_misses::total         9830                       # number of ReadSharedReq MSHR misses
system.l2.demand_mshr_misses::cpu0.inst           143                       # number of demand (read+write) MSHR misses
system.l2.demand_mshr_misses::cpu0.data         13758                       # number of demand (read+write) MSHR misses
system.l2.demand_mshr_misses::total             13901                       # number of demand (read+write) MSHR misses
system.l2.overall_mshr_misses::cpu0.inst          143                       # number of overall MSHR misses
system.l2.overall_mshr_misses::cpu0.data        13758                       # number of overall MSHR misses
system.l2.overall_mshr_misses::total            13901                       # number of overall MSHR misses
system.l2.ReadExReq_mshr_miss_latency::cpu0.data    305080000                       # number of ReadExReq MSHR miss cycles
system.l2.ReadExReq_mshr_miss_latency::total    305080000                       # number of ReadExReq MSHR miss cycles
system.l2.ReadCleanReq_mshr_miss_latency::cpu0.inst     14907500                       # number of ReadCleanReq MSHR miss cycles
system.l2.ReadCleanReq_mshr_miss_latency::total     14907500                       # number of ReadCleanReq MSHR miss cycles
system.l2.ReadSharedReq_mshr_miss_latency::cpu0.data    830148500                       # number of ReadSharedReq MSHR miss cycles
system.l2.ReadSharedReq_mshr_miss_latency::total    830148500                       # number of ReadSharedReq MSHR miss cycles
system.l2.demand_mshr_miss_latency::cpu0.inst     14907500                       # number of demand (read+write) MSHR miss cycles
system.l2.demand_mshr_miss_latency::cpu0.data   1135228500                       # number of demand (read+write) MSHR miss cycles
system.l2.demand_mshr_miss_latency::total   1150136000                       # number of demand (read+write) MSHR miss cycles
system.l2.overall_mshr_miss_latency::cpu0.inst     14907500                       # number of overall MSHR miss cycles
system.l2.overall_mshr_miss_latency::cpu0.data   1135228500                       # number of overall MSHR miss cycles
system.l2.overall_mshr_miss_latency::total   1150136000                       # number of overall MSHR miss cycles
system.l2.CleanEvict_mshr_miss_rate::writebacks          inf                       # mshr miss rate for CleanEvict accesses
system.l2.CleanEvict_mshr_miss_rate::total          inf                       # mshr miss rate for CleanEvict accesses
system.l2.ReadExReq_mshr_miss_rate::cpu0.data     0.871533                       # mshr miss rate for ReadExReq accesses
system.l2.ReadExReq_mshr_miss_rate::total     0.871533                       # mshr miss rate for ReadExReq accesses
system.l2.ReadCleanReq_mshr_miss_rate::cpu0.inst     0.458333                       # mshr miss rate for ReadCleanReq accesses
system.l2.ReadCleanReq_mshr_miss_rate::total     0.458333                       # mshr miss rate for ReadCleanReq accesses
system.l2.ReadSharedReq_mshr_miss_rate::cpu0.data     0.951505                       # mshr miss rate for ReadSharedReq accesses
system.l2.ReadSharedReq_mshr_miss_rate::total     0.951505                       # mshr miss rate for ReadSharedReq accesses
system.l2.demand_mshr_miss_rate::cpu0.inst     0.458333                       # mshr miss rate for demand accesses
system.l2.demand_mshr_miss_rate::cpu0.data     0.927214                       # mshr miss rate for demand accesses
system.l2.demand_mshr_miss_rate::total       0.917558                       # mshr miss rate for demand accesses
system.l2.overall_mshr_miss_rate::cpu0.inst     0.458333                       # mshr miss rate for overall accesses
system.l2.overall_mshr_miss_rate::cpu0.data     0.927214                       # mshr miss rate for overall accesses
system.l2.overall_mshr_miss_rate::total      0.917558                       # mshr miss rate for overall accesses
system.l2.ReadExReq_avg_mshr_miss_latency::cpu0.data 77668.024440                       # average ReadExReq mshr miss latency
system.l2.ReadExReq_avg_mshr_miss_latency::total 77668.024440                       # average ReadExReq mshr miss latency
system.l2.ReadCleanReq_avg_mshr_miss_latency::cpu0.inst 104248.251748                       # average ReadCleanReq mshr miss latency
system.l2.ReadCleanReq_avg_mshr_miss_latency::total 104248.251748                       # average ReadCleanReq mshr miss latency
system.l2.ReadSharedReq_avg_mshr_miss_latency::cpu0.data 84450.508647                       # average ReadSharedReq mshr miss latency
system.l2.ReadSharedReq_avg_mshr_miss_latency::total 84450.508647                       # average ReadSharedReq mshr miss latency
system.l2.demand_avg_mshr_miss_latency::cpu0.inst 104248.251748                       # average overall mshr miss latency
system.l2.demand_avg_mshr_miss_latency::cpu0.data 82514.064544                       # average overall mshr miss latency
system.l2.demand_avg_mshr_miss_latency::total 82737.644774                       # average overall mshr miss latency
system.l2.overall_avg_mshr_miss_latency::cpu0.inst 104248.251748                       # average overall mshr miss latency
system.l2.overall_avg_mshr_miss_latency::cpu0.data 82514.064544                       # average overall mshr miss latency
system.l2.overall_avg_mshr_miss_latency::total 82737.644774                       # average overall mshr miss latency
system.membus.snoop_filter.tot_requests         28237                       # Total number of requests made to the snoop filter.
system.membus.snoop_filter.hit_single_requests        14337                       # Number of requests hitting in the snoop filter with a single holder of the requested data.
system.membus.snoop_filter.hit_multi_requests            0                       # Number of requests hitting in the snoop filter with multiple (>1) holders of the requested data.
system.membus.snoop_filter.tot_snoops               0                       # Total number of snoops made to the snoop filter.
system.membus.snoop_filter.hit_single_snoops            0                       # Number of snoops hitting in the snoop filter with a single holder of the requested data.
system.membus.snoop_filter.hit_multi_snoops            0                       # Number of snoops hitting in the snoop filter with multiple (>1) holders of the requested data.
system.membus.pwrStateResidencyTicks::UNDEFINED  15267344125                       # Cumulative time (in ticks) in various power states
system.membus.trans_dist::ReadResp               9973                       # Transaction distribution
system.membus.trans_dist::WritebackDirty        13283                       # Transaction distribution
system.membus.trans_dist::CleanEvict             1053                       # Transaction distribution
system.membus.trans_dist::ReadExReq              3928                       # Transaction distribution
system.membus.trans_dist::ReadExResp             3928                       # Transaction distribution
system.membus.trans_dist::ReadSharedReq          9973                       # Transaction distribution
system.membus.pkt_count_system.l2.mem_side::system.mem_ctrls.port        42138                       # Packet count per connected master and slave (bytes)
system.membus.pkt_count_system.l2.mem_side::total        42138                       # Packet count per connected master and slave (bytes)
system.membus.pkt_count::total                  42138                       # Packet count per connected master and slave (bytes)
system.membus.pkt_size_system.l2.mem_side::system.mem_ctrls.port      1739776                       # Cumulative packet size per connected master and slave (bytes)
system.membus.pkt_size_system.l2.mem_side::total      1739776                       # Cumulative packet size per connected master and slave (bytes)
system.membus.pkt_size::total                 1739776                       # Cumulative packet size per connected master and slave (bytes)
system.membus.snoops                                0                       # Total snoops (count)
system.membus.snoopTraffic                          0                       # Total snoop traffic (bytes)
system.membus.snoop_fanout::samples             13901                       # Request fanout histogram
system.membus.snoop_fanout::mean                    0                       # Request fanout histogram
system.membus.snoop_fanout::stdev                   0                       # Request fanout histogram
system.membus.snoop_fanout::underflows              0      0.00%      0.00% # Request fanout histogram
system.membus.snoop_fanout::0                   13901    100.00%    100.00% # Request fanout histogram
system.membus.snoop_fanout::1                       0      0.00%    100.00% # Request fanout histogram
system.membus.snoop_fanout::overflows               0      0.00%    100.00% # Request fanout histogram
system.membus.snoop_fanout::min_value               0                       # Request fanout histogram
system.membus.snoop_fanout::max_value               0                       # Request fanout histogram
system.membus.snoop_fanout::total               13901                       # Request fanout histogram
system.membus.reqLayer8.occupancy            84185500                       # Layer occupancy (ticks)
system.membus.reqLayer8.utilization               0.6                       # Layer utilization (%)
system.membus.respLayer1.occupancy           73786500                       # Layer occupancy (ticks)
system.membus.respLayer1.utilization              0.5                       # Layer utilization (%)
system.tol2bus.snoop_filter.tot_requests        30307                       # Total number of requests made to the snoop filter.
system.tol2bus.snoop_filter.hit_single_requests        15153                       # Number of requests hitting in the snoop filter with a single holder of the requested data.
system.tol2bus.snoop_filter.hit_multi_requests           19                       # Number of requests hitting in the snoop filter with multiple (>1) holders of the requested data.
system.tol2bus.snoop_filter.tot_snoops              0                       # Total number of snoops made to the snoop filter.
system.tol2bus.snoop_filter.hit_single_snoops            0                       # Number of snoops hitting in the snoop filter with a single holder of the requested data.
system.tol2bus.snoop_filter.hit_multi_snoops            0                       # Number of snoops hitting in the snoop filter with multiple (>1) holders of the requested data.
system.tol2bus.pwrStateResidencyTicks::UNDEFINED  15267344125                       # Cumulative time (in ticks) in various power states
system.tol2bus.trans_dist::ReadResp             10646                       # Transaction distribution
system.tol2bus.trans_dist::WritebackDirty        27148                       # Transaction distribution
system.tol2bus.trans_dist::WritebackClean          313                       # Transaction distribution
system.tol2bus.trans_dist::CleanEvict            1813                       # Transaction distribution
system.tol2bus.trans_dist::UpgradeReq               3                       # Transaction distribution
system.tol2bus.trans_dist::UpgradeResp              3                       # Transaction distribution
system.tol2bus.trans_dist::ReadExReq             4507                       # Transaction distribution
system.tol2bus.trans_dist::ReadExResp            4507                       # Transaction distribution
system.tol2bus.trans_dist::ReadCleanReq           315                       # Transaction distribution
system.tol2bus.trans_dist::ReadSharedReq        10331                       # Transaction distribution
system.tol2bus.pkt_count_system.cpu0.icache.mem_side::system.l2.cpu_side          940                       # Packet count per connected master and slave (bytes)
system.tol2bus.pkt_count_system.cpu0.dcache.mem_side::system.l2.cpu_side        44520                       # Packet count per connected master and slave (bytes)
system.tol2bus.pkt_count::total                 45460                       # Packet count per connected master and slave (bytes)
system.tol2bus.pkt_size_system.cpu0.icache.mem_side::system.l2.cpu_side        40000                       # Cumulative packet size per connected master and slave (bytes)
system.tol2bus.pkt_size_system.cpu0.dcache.mem_side::system.l2.cpu_side      1836992                       # Cumulative packet size per connected master and slave (bytes)
system.tol2bus.pkt_size::total                1876992                       # Cumulative packet size per connected master and slave (bytes)
system.tol2bus.snoops                           14126                       # Total snoops (count)
system.tol2bus.snoopTraffic                    850304                       # Total snoop traffic (bytes)
system.tol2bus.snoop_fanout::samples            29279                       # Request fanout histogram
system.tol2bus.snoop_fanout::mean            0.000717                       # Request fanout histogram
system.tol2bus.snoop_fanout::stdev           0.026772                       # Request fanout histogram
system.tol2bus.snoop_fanout::underflows             0      0.00%      0.00% # Request fanout histogram
system.tol2bus.snoop_fanout::0                  29258     99.93%     99.93% # Request fanout histogram
system.tol2bus.snoop_fanout::1                     21      0.07%    100.00% # Request fanout histogram
system.tol2bus.snoop_fanout::2                      0      0.00%    100.00% # Request fanout histogram
system.tol2bus.snoop_fanout::3                      0      0.00%    100.00% # Request fanout histogram
system.tol2bus.snoop_fanout::4                      0      0.00%    100.00% # Request fanout histogram
system.tol2bus.snoop_fanout::5                      0      0.00%    100.00% # Request fanout histogram
system.tol2bus.snoop_fanout::6                      0      0.00%    100.00% # Request fanout histogram
system.tol2bus.snoop_fanout::7                      0      0.00%    100.00% # Request fanout histogram
system.tol2bus.snoop_fanout::8                      0      0.00%    100.00% # Request fanout histogram
system.tol2bus.snoop_fanout::9                      0      0.00%    100.00% # Request fanout histogram
system.tol2bus.snoop_fanout::10                     0      0.00%    100.00% # Request fanout histogram
system.tol2bus.snoop_fanout::11                     0      0.00%    100.00% # Request fanout histogram
system.tol2bus.snoop_fanout::12                     0      0.00%    100.00% # Request fanout histogram
system.tol2bus.snoop_fanout::13                     0      0.00%    100.00% # Request fanout histogram
system.tol2bus.snoop_fanout::14                     0      0.00%    100.00% # Request fanout histogram
system.tol2bus.snoop_fanout::15                     0      0.00%    100.00% # Request fanout histogram
system.tol2bus.snoop_fanout::16                     0      0.00%    100.00% # Request fanout histogram
system.tol2bus.snoop_fanout::overflows              0      0.00%    100.00% # Request fanout histogram
system.tol2bus.snoop_fanout::min_value              0                       # Request fanout histogram
system.tol2bus.snoop_fanout::max_value              1                       # Request fanout histogram
system.tol2bus.snoop_fanout::total              29279                       # Request fanout histogram
system.tol2bus.reqLayer0.occupancy           29331500                       # Layer occupancy (ticks)
system.tol2bus.reqLayer0.utilization              0.2                       # Layer utilization (%)
system.tol2bus.respLayer0.occupancy            472500                       # Layer occupancy (ticks)
system.tol2bus.respLayer0.utilization             0.0                       # Layer utilization (%)
system.tol2bus.respLayer1.occupancy          22259997                       # Layer occupancy (ticks)
system.tol2bus.respLayer1.utilization             0.1                       # Layer utilization (%)

---------- End Simulation Statistics   ----------
