
---------- Begin Simulation Statistics ----------
sim_seconds                                  0.015267                       # Number of seconds simulated
sim_ticks                                 15267344125                       # Number of ticks simulated
final_tick                               3587825869375                       # Number of ticks from beginning of simulation (restored from checkpoints and never reset)
sim_freq                                 1000000000000                       # Frequency of simulated ticks
host_inst_rate                               98378374                       # Simulator instruction rate (inst/s)
host_op_rate                                182510958                       # Simulator op (including micro ops) rate (op/s)
host_tick_rate                              265104356                       # Simulator tick rate (ticks/s)
host_mem_usage                                2332536                       # Number of bytes of host memory used
host_seconds                                    57.59                       # Real time elapsed on the host
sim_insts                                  5665602953                       # Number of instructions simulated
sim_ops                                   10510793693                       # Number of ops (including micro ops) simulated
system.voltage_domain.voltage                       1                       # Voltage in Volts
system.clk_domain.clock                          1000                       # Clock period in ticks
system.mem_ctrls.pwrStateResidencyTicks::UNDEFINED  15267344125                       # Cumulative time (in ticks) in various power states
system.mem_ctrls.bytes_read::cpu0.data       10721152                       # Number of bytes read from this memory
system.mem_ctrls.bytes_read::total           10721152                       # Number of bytes read from this memory
system.mem_ctrls.bytes_written::writebacks        40128                       # Number of bytes written to this memory
system.mem_ctrls.bytes_written::total           40128                       # Number of bytes written to this memory
system.mem_ctrls.num_reads::cpu0.data          167518                       # Number of read requests responded to by this memory
system.mem_ctrls.num_reads::total              167518                       # Number of read requests responded to by this memory
system.mem_ctrls.num_writes::writebacks           627                       # Number of write requests responded to by this memory
system.mem_ctrls.num_writes::total                627                       # Number of write requests responded to by this memory
system.mem_ctrls.bw_read::cpu0.data         702227703                       # Total read bandwidth from this memory (bytes/s)
system.mem_ctrls.bw_read::total             702227703                       # Total read bandwidth from this memory (bytes/s)
system.mem_ctrls.bw_write::writebacks         2628355                       # Write bandwidth from this memory (bytes/s)
system.mem_ctrls.bw_write::total              2628355                       # Write bandwidth from this memory (bytes/s)
system.mem_ctrls.bw_total::writebacks         2628355                       # Total bandwidth to/from this memory (bytes/s)
system.mem_ctrls.bw_total::cpu0.data        702227703                       # Total bandwidth to/from this memory (bytes/s)
system.mem_ctrls.bw_total::total            704856058                       # Total bandwidth to/from this memory (bytes/s)
system.mem_ctrls.readReqs                      167518                       # Number of read requests accepted
system.mem_ctrls.writeReqs                        627                       # Number of write requests accepted
system.mem_ctrls.readBursts                    167518                       # Number of DRAM read bursts, including those serviced by the write queue
system.mem_ctrls.writeBursts                      627                       # Number of DRAM write bursts, including those merged in the write queue
system.mem_ctrls.bytesReadDRAM               10716160                       # Total number of bytes read from DRAM
system.mem_ctrls.bytesReadWrQ                    4992                       # Total number of bytes read from write queue
system.mem_ctrls.bytesWritten                   39168                       # Total number of bytes written to DRAM
system.mem_ctrls.bytesReadSys                10721152                       # Total read bytes from the system interface side
system.mem_ctrls.bytesWrittenSys                40128                       # Total written bytes from the system interface side
system.mem_ctrls.servicedByWrQ                     78                       # Number of DRAM read bursts serviced by the write queue
system.mem_ctrls.mergedWrBursts                     0                       # Number of DRAM write bursts merged with an existing one
system.mem_ctrls.neitherReadNorWriteReqs            0                       # Number of requests that are neither read nor write
system.mem_ctrls.perBankRdBursts::0             10176                       # Per bank write bursts
system.mem_ctrls.perBankRdBursts::1             10310                       # Per bank write bursts
system.mem_ctrls.perBankRdBursts::2             10267                       # Per bank write bursts
system.mem_ctrls.perBankRdBursts::3             11090                       # Per bank write bursts
system.mem_ctrls.perBankRdBursts::4             11243                       # Per bank write bursts
system.mem_ctrls.perBankRdBursts::5             10693                       # Per bank write bursts
system.mem_ctrls.perBankRdBursts::6             10676                       # Per bank write bursts
system.mem_ctrls.perBankRdBursts::7             10537                       # Per bank write bursts
system.mem_ctrls.perBankRdBursts::8             10455                       # Per bank write bursts
system.mem_ctrls.perBankRdBursts::9             10184                       # Per bank write bursts
system.mem_ctrls.perBankRdBursts::10            10185                       # Per bank write bursts
system.mem_ctrls.perBankRdBursts::11            10147                       # Per bank write bursts
system.mem_ctrls.perBankRdBursts::12            10324                       # Per bank write bursts
system.mem_ctrls.perBankRdBursts::13            10525                       # Per bank write bursts
system.mem_ctrls.perBankRdBursts::14            10345                       # Per bank write bursts
system.mem_ctrls.perBankRdBursts::15            10283                       # Per bank write bursts
system.mem_ctrls.perBankWrBursts::0                34                       # Per bank write bursts
system.mem_ctrls.perBankWrBursts::1               140                       # Per bank write bursts
system.mem_ctrls.perBankWrBursts::2               165                       # Per bank write bursts
system.mem_ctrls.perBankWrBursts::3               208                       # Per bank write bursts
system.mem_ctrls.perBankWrBursts::4                55                       # Per bank write bursts
system.mem_ctrls.perBankWrBursts::5                 1                       # Per bank write bursts
system.mem_ctrls.perBankWrBursts::6                 0                       # Per bank write bursts
system.mem_ctrls.perBankWrBursts::7                 0                       # Per bank write bursts
system.mem_ctrls.perBankWrBursts::8                 0                       # Per bank write bursts
system.mem_ctrls.perBankWrBursts::9                 0                       # Per bank write bursts
system.mem_ctrls.perBankWrBursts::10                0                       # Per bank write bursts
system.mem_ctrls.perBankWrBursts::11                0                       # Per bank write bursts
system.mem_ctrls.perBankWrBursts::12                0                       # Per bank write bursts
system.mem_ctrls.perBankWrBursts::13                0                       # Per bank write bursts
system.mem_ctrls.perBankWrBursts::14                1                       # Per bank write bursts
system.mem_ctrls.perBankWrBursts::15                8                       # Per bank write bursts
system.mem_ctrls.numRdRetry                         0                       # Number of times read queue was full causing retry
system.mem_ctrls.numWrRetry                         0                       # Number of times write queue was full causing retry
system.mem_ctrls.totGap                   15268901000                       # Total gap between requests
system.mem_ctrls.readPktSize::0                     0                       # Read request sizes (log2)
system.mem_ctrls.readPktSize::1                     0                       # Read request sizes (log2)
system.mem_ctrls.readPktSize::2                     0                       # Read request sizes (log2)
system.mem_ctrls.readPktSize::3                     0                       # Read request sizes (log2)
system.mem_ctrls.readPktSize::4                     0                       # Read request sizes (log2)
system.mem_ctrls.readPktSize::5                     0                       # Read request sizes (log2)
system.mem_ctrls.readPktSize::6                167518                       # Read request sizes (log2)
system.mem_ctrls.writePktSize::0                    0                       # Write request sizes (log2)
system.mem_ctrls.writePktSize::1                    0                       # Write request sizes (log2)
system.mem_ctrls.writePktSize::2                    0                       # Write request sizes (log2)
system.mem_ctrls.writePktSize::3                    0                       # Write request sizes (log2)
system.mem_ctrls.writePktSize::4                    0                       # Write request sizes (log2)
system.mem_ctrls.writePktSize::5                    0                       # Write request sizes (log2)
system.mem_ctrls.writePktSize::6                  627                       # Write request sizes (log2)
system.mem_ctrls.rdQLenPdf::0                  129068                       # What read queue length does an incoming req see
system.mem_ctrls.rdQLenPdf::1                   35772                       # What read queue length does an incoming req see
system.mem_ctrls.rdQLenPdf::2                    2503                       # What read queue length does an incoming req see
system.mem_ctrls.rdQLenPdf::3                      97                       # What read queue length does an incoming req see
system.mem_ctrls.rdQLenPdf::4                       0                       # What read queue length does an incoming req see
system.mem_ctrls.rdQLenPdf::5                       0                       # What read queue length does an incoming req see
system.mem_ctrls.rdQLenPdf::6                       0                       # What read queue length does an incoming req see
system.mem_ctrls.rdQLenPdf::7                       0                       # What read queue length does an incoming req see
system.mem_ctrls.rdQLenPdf::8                       0                       # What read queue length does an incoming req see
system.mem_ctrls.rdQLenPdf::9                       0                       # What read queue length does an incoming req see
system.mem_ctrls.rdQLenPdf::10                      0                       # What read queue length does an incoming req see
system.mem_ctrls.rdQLenPdf::11                      0                       # What read queue length does an incoming req see
system.mem_ctrls.rdQLenPdf::12                      0                       # What read queue length does an incoming req see
system.mem_ctrls.rdQLenPdf::13                      0                       # What read queue length does an incoming req see
system.mem_ctrls.rdQLenPdf::14                      0                       # What read queue length does an incoming req see
system.mem_ctrls.rdQLenPdf::15                      0                       # What read queue length does an incoming req see
system.mem_ctrls.rdQLenPdf::16                      0                       # What read queue length does an incoming req see
system.mem_ctrls.rdQLenPdf::17                      0                       # What read queue length does an incoming req see
system.mem_ctrls.rdQLenPdf::18                      0                       # What read queue length does an incoming req see
system.mem_ctrls.rdQLenPdf::19                      0                       # What read queue length does an incoming req see
system.mem_ctrls.rdQLenPdf::20                      0                       # What read queue length does an incoming req see
system.mem_ctrls.rdQLenPdf::21                      0                       # What read queue length does an incoming req see
system.mem_ctrls.rdQLenPdf::22                      0                       # What read queue length does an incoming req see
system.mem_ctrls.rdQLenPdf::23                      0                       # What read queue length does an incoming req see
system.mem_ctrls.rdQLenPdf::24                      0                       # What read queue length does an incoming req see
system.mem_ctrls.rdQLenPdf::25                      0                       # What read queue length does an incoming req see
system.mem_ctrls.rdQLenPdf::26                      0                       # What read queue length does an incoming req see
system.mem_ctrls.rdQLenPdf::27                      0                       # What read queue length does an incoming req see
system.mem_ctrls.rdQLenPdf::28                      0                       # What read queue length does an incoming req see
system.mem_ctrls.rdQLenPdf::29                      0                       # What read queue length does an incoming req see
system.mem_ctrls.rdQLenPdf::30                      0                       # What read queue length does an incoming req see
system.mem_ctrls.rdQLenPdf::31                      0                       # What read queue length does an incoming req see
system.mem_ctrls.wrQLenPdf::0                       0                       # What write queue length does an incoming req see
system.mem_ctrls.wrQLenPdf::1                       0                       # What write queue length does an incoming req see
system.mem_ctrls.wrQLenPdf::2                       0                       # What write queue length does an incoming req see
system.mem_ctrls.wrQLenPdf::3                       0                       # What write queue length does an incoming req see
system.mem_ctrls.wrQLenPdf::4                       0                       # What write queue length does an incoming req see
system.mem_ctrls.wrQLenPdf::5                       0                       # What write queue length does an incoming req see
system.mem_ctrls.wrQLenPdf::6                       0                       # What write queue length does an incoming req see
system.mem_ctrls.wrQLenPdf::7                       0                       # What write queue length does an incoming req see
system.mem_ctrls.wrQLenPdf::8                       0                       # What write queue length does an incoming req see
system.mem_ctrls.wrQLenPdf::9                       0                       # What write queue length does an incoming req see
system.mem_ctrls.wrQLenPdf::10                      0                       # What write queue length does an incoming req see
system.mem_ctrls.wrQLenPdf::11                      0                       # What write queue length does an incoming req see
system.mem_ctrls.wrQLenPdf::12                      0                       # What write queue length does an incoming req see
system.mem_ctrls.wrQLenPdf::13                      0                       # What write queue length does an incoming req see
system.mem_ctrls.wrQLenPdf::14                      0                       # What write queue length does an incoming req see
system.mem_ctrls.wrQLenPdf::15                      2                       # What write queue length does an incoming req see
system.mem_ctrls.wrQLenPdf::16                      2                       # What write queue length does an incoming req see
system.mem_ctrls.wrQLenPdf::17                     39                       # What write queue length does an incoming req see
system.mem_ctrls.wrQLenPdf::18                     39                       # What write queue length does an incoming req see
system.mem_ctrls.wrQLenPdf::19                     39                       # What write queue length does an incoming req see
system.mem_ctrls.wrQLenPdf::20                     39                       # What write queue length does an incoming req see
system.mem_ctrls.wrQLenPdf::21                     39                       # What write queue length does an incoming req see
system.mem_ctrls.wrQLenPdf::22                     39                       # What write queue length does an incoming req see
system.mem_ctrls.wrQLenPdf::23                     39                       # What write queue length does an incoming req see
system.mem_ctrls.wrQLenPdf::24                     39                       # What write queue length does an incoming req see
system.mem_ctrls.wrQLenPdf::25                     39                       # What write queue length does an incoming req see
system.mem_ctrls.wrQLenPdf::26                     39                       # What write queue length does an incoming req see
system.mem_ctrls.wrQLenPdf::27                     39                       # What write queue length does an incoming req see
system.mem_ctrls.wrQLenPdf::28                     39                       # What write queue length does an incoming req see
system.mem_ctrls.wrQLenPdf::29                     39                       # What write queue length does an incoming req see
system.mem_ctrls.wrQLenPdf::30                     39                       # What write queue length does an incoming req see
system.mem_ctrls.wrQLenPdf::31                     39                       # What write queue length does an incoming req see
system.mem_ctrls.wrQLenPdf::32                     38                       # What write queue length does an incoming req see
system.mem_ctrls.wrQLenPdf::33                      0                       # What write queue length does an incoming req see
system.mem_ctrls.wrQLenPdf::34                      0                       # What write queue length does an incoming req see
system.mem_ctrls.wrQLenPdf::35                      0                       # What write queue length does an incoming req see
system.mem_ctrls.wrQLenPdf::36                      0                       # What write queue length does an incoming req see
system.mem_ctrls.wrQLenPdf::37                      0                       # What write queue length does an incoming req see
system.mem_ctrls.wrQLenPdf::38                      0                       # What write queue length does an incoming req see
system.mem_ctrls.wrQLenPdf::39                      0                       # What write queue length does an incoming req see
system.mem_ctrls.wrQLenPdf::40                      0                       # What write queue length does an incoming req see
system.mem_ctrls.wrQLenPdf::41                      0                       # What write queue length does an incoming req see
system.mem_ctrls.wrQLenPdf::42                      0                       # What write queue length does an incoming req see
system.mem_ctrls.wrQLenPdf::43                      0                       # What write queue length does an incoming req see
system.mem_ctrls.wrQLenPdf::44                      0                       # What write queue length does an incoming req see
system.mem_ctrls.wrQLenPdf::45                      0                       # What write queue length does an incoming req see
system.mem_ctrls.wrQLenPdf::46                      0                       # What write queue length does an incoming req see
system.mem_ctrls.wrQLenPdf::47                      0                       # What write queue length does an incoming req see
system.mem_ctrls.wrQLenPdf::48                      0                       # What write queue length does an incoming req see
system.mem_ctrls.wrQLenPdf::49                      0                       # What write queue length does an incoming req see
system.mem_ctrls.wrQLenPdf::50                      0                       # What write queue length does an incoming req see
system.mem_ctrls.wrQLenPdf::51                      0                       # What write queue length does an incoming req see
system.mem_ctrls.wrQLenPdf::52                      0                       # What write queue length does an incoming req see
system.mem_ctrls.wrQLenPdf::53                      0                       # What write queue length does an incoming req see
system.mem_ctrls.wrQLenPdf::54                      0                       # What write queue length does an incoming req see
system.mem_ctrls.wrQLenPdf::55                      0                       # What write queue length does an incoming req see
system.mem_ctrls.wrQLenPdf::56                      0                       # What write queue length does an incoming req see
system.mem_ctrls.wrQLenPdf::57                      0                       # What write queue length does an incoming req see
system.mem_ctrls.wrQLenPdf::58                      0                       # What write queue length does an incoming req see
system.mem_ctrls.wrQLenPdf::59                      0                       # What write queue length does an incoming req see
system.mem_ctrls.wrQLenPdf::60                      0                       # What write queue length does an incoming req see
system.mem_ctrls.wrQLenPdf::61                      0                       # What write queue length does an incoming req see
system.mem_ctrls.wrQLenPdf::62                      0                       # What write queue length does an incoming req see
system.mem_ctrls.wrQLenPdf::63                      0                       # What write queue length does an incoming req see
system.mem_ctrls.bytesPerActivate::samples        93270                       # Bytes accessed per row activation
system.mem_ctrls.bytesPerActivate::mean    115.296751                       # Bytes accessed per row activation
system.mem_ctrls.bytesPerActivate::gmean    99.894858                       # Bytes accessed per row activation
system.mem_ctrls.bytesPerActivate::stdev    69.876833                       # Bytes accessed per row activation
system.mem_ctrls.bytesPerActivate::0-127        48437     51.93%     51.93% # Bytes accessed per row activation
system.mem_ctrls.bytesPerActivate::128-255        37533     40.24%     92.17% # Bytes accessed per row activation
system.mem_ctrls.bytesPerActivate::256-383         6414      6.88%     99.05% # Bytes accessed per row activation
system.mem_ctrls.bytesPerActivate::384-511          771      0.83%     99.88% # Bytes accessed per row activation
system.mem_ctrls.bytesPerActivate::512-639           88      0.09%     99.97% # Bytes accessed per row activation
system.mem_ctrls.bytesPerActivate::640-767            8      0.01%     99.98% # Bytes accessed per row activation
system.mem_ctrls.bytesPerActivate::768-895            6      0.01%     99.99% # Bytes accessed per row activation
system.mem_ctrls.bytesPerActivate::896-1023            2      0.00%     99.99% # Bytes accessed per row activation
system.mem_ctrls.bytesPerActivate::1024-1151           11      0.01%    100.00% # Bytes accessed per row activation
system.mem_ctrls.bytesPerActivate::total        93270                       # Bytes accessed per row activation
system.mem_ctrls.rdPerTurnAround::samples           38                       # Reads before turning the bus around for writes
system.mem_ctrls.rdPerTurnAround::mean    4289.184211                       # Reads before turning the bus around for writes
system.mem_ctrls.rdPerTurnAround::gmean   4069.067963                       # Reads before turning the bus around for writes
system.mem_ctrls.rdPerTurnAround::stdev   1412.840858                       # Reads before turning the bus around for writes
system.mem_ctrls.rdPerTurnAround::1536-2047            2      5.26%      5.26% # Reads before turning the bus around for writes
system.mem_ctrls.rdPerTurnAround::2048-2559            2      5.26%     10.53% # Reads before turning the bus around for writes
system.mem_ctrls.rdPerTurnAround::2560-3071            3      7.89%     18.42% # Reads before turning the bus around for writes
system.mem_ctrls.rdPerTurnAround::3072-3583            4     10.53%     28.95% # Reads before turning the bus around for writes
system.mem_ctrls.rdPerTurnAround::3584-4095            5     13.16%     42.11% # Reads before turning the bus around for writes
system.mem_ctrls.rdPerTurnAround::4096-4607           10     26.32%     68.42% # Reads before turning the bus around for writes
system.mem_ctrls.rdPerTurnAround::4608-5119            5     13.16%     81.58% # Reads before turning the bus around for writes
system.mem_ctrls.rdPerTurnAround::5120-5631            1      2.63%     84.21% # Reads before turning the bus around for writes
system.mem_ctrls.rdPerTurnAround::5632-6143            2      5.26%     89.47% # Reads before turning the bus around for writes
system.mem_ctrls.rdPerTurnAround::6144-6655            1      2.63%     92.11% # Reads before turning the bus around for writes
system.mem_ctrls.rdPerTurnAround::6656-7167            2      5.26%     97.37% # Reads before turning the bus around for writes
system.mem_ctrls.rdPerTurnAround::8192-8703            1      2.63%    100.00% # Reads before turning the bus around for writes
system.mem_ctrls.rdPerTurnAround::total            38                       # Reads before turning the bus around for writes
system.mem_ctrls.wrPerTurnAround::samples           38                       # Writes before turning the bus around for reads
system.mem_ctrls.wrPerTurnAround::mean      16.105263                       # Writes before turning the bus around for reads
system.mem_ctrls.wrPerTurnAround::gmean     16.099494                       # Writes before turning the bus around for reads
system.mem_ctrls.wrPerTurnAround::stdev      0.452589                       # Writes before turning the bus around for reads
system.mem_ctrls.wrPerTurnAround::16               36     94.74%     94.74% # Writes before turning the bus around for reads
system.mem_ctrls.wrPerTurnAround::18                2      5.26%    100.00% # Writes before turning the bus around for reads
system.mem_ctrls.wrPerTurnAround::total            38                       # Writes before turning the bus around for reads
system.mem_ctrls.totQLat                   4250242250                       # Total ticks spent queuing
system.mem_ctrls.totMemAccLat              7389742250                       # Total ticks spent from burst creation until serviced by the DRAM
system.mem_ctrls.totBusLat                  837200000                       # Total ticks spent in databus transfers
system.mem_ctrls.avgQLat                     25383.67                       # Average queueing delay per DRAM burst
system.mem_ctrls.avgBusLat                    5000.00                       # Average bus latency per DRAM burst
system.mem_ctrls.avgMemAccLat                44133.67                       # Average memory access latency per DRAM burst
system.mem_ctrls.avgRdBW                       701.90                       # Average DRAM read bandwidth in MiByte/s
system.mem_ctrls.avgWrBW                         2.57                       # Average achieved write bandwidth in MiByte/s
system.mem_ctrls.avgRdBWSys                    702.23                       # Average system read bandwidth in MiByte/s
system.mem_ctrls.avgWrBWSys                      2.63                       # Average system write bandwidth in MiByte/s
system.mem_ctrls.peakBW                      12800.00                       # Theoretical peak bandwidth in MiByte/s
system.mem_ctrls.busUtil                         5.50                       # Data bus utilization in percentage
system.mem_ctrls.busUtilRead                     5.48                       # Data bus utilization in percentage for reads
system.mem_ctrls.busUtilWrite                    0.02                       # Data bus utilization in percentage for writes
system.mem_ctrls.avgRdQLen                       1.27                       # Average read queue length when enqueuing
system.mem_ctrls.avgWrQLen                      24.99                       # Average write queue length when enqueuing
system.mem_ctrls.readRowHits                    74267                       # Number of row buffer hits during reads
system.mem_ctrls.writeRowHits                     504                       # Number of row buffer hits during writes
system.mem_ctrls.readRowHitRate                 44.35                       # Row buffer hit rate for reads
system.mem_ctrls.writeRowHitRate                80.38                       # Row buffer hit rate for writes
system.mem_ctrls.avgGap                      90807.94                       # Average gap between requests
system.mem_ctrls.pageHitRate                    44.49                       # Row buffer hit rate, read and write combined
system.mem_ctrls_0.actEnergy                338450280                       # Energy for activate commands per rank (pJ)
system.mem_ctrls_0.preEnergy                179875410                       # Energy for precharge commands per rank (pJ)
system.mem_ctrls_0.readEnergy               606842880                       # Energy for read commands per rank (pJ)
system.mem_ctrls_0.writeEnergy                3147660                       # Energy for write commands per rank (pJ)
system.mem_ctrls_0.refreshEnergy         1205309040.000000                       # Energy for refresh commands per rank (pJ)
system.mem_ctrls_0.actBackEnergy           1508565420                       # Energy for active background per rank (pJ)
system.mem_ctrls_0.preBackEnergy             24332160                       # Energy for precharge background per rank (pJ)
system.mem_ctrls_0.actPowerDownEnergy      5262295860                       # Energy for active power-down per rank (pJ)
system.mem_ctrls_0.prePowerDownEnergy       136549920                       # Energy for precharge power-down per rank (pJ)
system.mem_ctrls_0.selfRefreshEnergy                0                       # Energy for self refresh per rank (pJ)
system.mem_ctrls_0.totalEnergy             9265368630                       # Total energy per rank (pJ)
system.mem_ctrls_0.averagePower            606.874945                       # Core power per rank (mW)
system.mem_ctrls_0.totalIdleTime          11895389750                       # Total Idle time Per DRAM Rank
system.mem_ctrls_0.memoryStateTime::IDLE      9767500                       # Time in different power states
system.mem_ctrls_0.memoryStateTime::REF     509866000                       # Time in different power states
system.mem_ctrls_0.memoryStateTime::SREF            0                       # Time in different power states
system.mem_ctrls_0.memoryStateTime::PRE_PDN    355969750                       # Time in different power states
system.mem_ctrls_0.memoryStateTime::ACT    2852257750                       # Time in different power states
system.mem_ctrls_0.memoryStateTime::ACT_PDN  11539483125                       # Time in different power states
system.mem_ctrls_1.actEnergy                327576060                       # Energy for activate commands per rank (pJ)
system.mem_ctrls_1.preEnergy                174084240                       # Energy for precharge commands per rank (pJ)
system.mem_ctrls_1.readEnergy               588678720                       # Energy for read commands per rank (pJ)
system.mem_ctrls_1.writeEnergy                  46980                       # Energy for write commands per rank (pJ)
system.mem_ctrls_1.refreshEnergy         1205923680.000000                       # Energy for refresh commands per rank (pJ)
system.mem_ctrls_1.actBackEnergy           1463831250                       # Energy for active background per rank (pJ)
system.mem_ctrls_1.preBackEnergy             24901440                       # Energy for precharge background per rank (pJ)
system.mem_ctrls_1.actPowerDownEnergy      5281852560                       # Energy for active power-down per rank (pJ)
system.mem_ctrls_1.prePowerDownEnergy       156200160                       # Energy for precharge power-down per rank (pJ)
system.mem_ctrls_1.selfRefreshEnergy     1718580.000000                       # Energy for self refresh per rank (pJ)
system.mem_ctrls_1.totalEnergy             9224813670                       # Total energy per rank (pJ)
system.mem_ctrls_1.averagePower            604.218625                       # Core power per rank (mW)
system.mem_ctrls_1.totalIdleTime          11992107000                       # Total Idle time Per DRAM Rank
system.mem_ctrls_1.memoryStateTime::IDLE     10230500                       # Time in different power states
system.mem_ctrls_1.memoryStateTime::REF     510132000                       # Time in different power states
system.mem_ctrls_1.memoryStateTime::SREF      2558750                       # Time in different power states
system.mem_ctrls_1.memoryStateTime::PRE_PDN    406817750                       # Time in different power states
system.mem_ctrls_1.memoryStateTime::ACT    2754853000                       # Time in different power states
system.mem_ctrls_1.memoryStateTime::ACT_PDN  11582752125                       # Time in different power states
system.pwrStateResidencyTicks::UNDEFINED  15267344125                       # Cumulative time (in ticks) in various power states
system.cpu0.branchPred.lookups                2447595                       # Number of BP lookups
system.cpu0.branchPred.condPredicted          2447595                       # Number of conditional branches predicted
system.cpu0.branchPred.condIncorrect           116305                       # Number of conditional branches incorrect
system.cpu0.branchPred.BTBLookups             1976883                       # Number of BTB lookups
system.cpu0.branchPred.BTBHits                      0                       # Number of BTB hits
system.cpu0.branchPred.BTBCorrect                   0                       # Number of correct BTB predictions (this stat may not work properly.
system.cpu0.branchPred.BTBHitPct             0.000000                       # BTB Hit Percentage
system.cpu0.branchPred.usedRAS                  86094                       # Number of times the RAS was used to get a target.
system.cpu0.branchPred.RASInCorrect             13125                       # Number of incorrect RAS predictions.
system.cpu0.branchPred.indirectLookups        1976883                       # Number of indirect predictor lookups.
system.cpu0.branchPred.indirectHits           1009413                       # Number of indirect target hits.
system.cpu0.branchPred.indirectMisses          967470                       # Number of indirect misses.
system.cpu0.branchPredindirectMispredicted        40949                       # Number of mispredicted indirect branches.
system.cpu_voltage_domain.voltage                   1                       # Voltage in Volts
system.cpu_clk_domain.clock                       500                       # Clock period in ticks
system.cpu0.dtb.walker.pwrStateResidencyTicks::UNDEFINED  15267344125                       # Cumulative time (in ticks) in various power states
system.cpu0.dtb.rdAccesses                    1197827                       # TLB accesses on read requests
system.cpu0.dtb.wrAccesses                      96394                       # TLB accesses on write requests
system.cpu0.dtb.rdMisses                       229254                       # TLB misses on read requests
system.cpu0.dtb.wrMisses                         1676                       # TLB misses on write requests
system.cpu0.apic_clk_domain.clock                8000                       # Clock period in ticks
system.cpu0.interrupts.pwrStateResidencyTicks::UNDEFINED  15267344125                       # Cumulative time (in ticks) in various power states
system.cpu0.itb.walker.pwrStateResidencyTicks::UNDEFINED  15267344125                       # Cumulative time (in ticks) in various power states
system.cpu0.itb.rdAccesses                          0                       # TLB accesses on read requests
system.cpu0.itb.wrAccesses                    1970964                       # TLB accesses on write requests
system.cpu0.itb.rdMisses                            0                       # TLB misses on read requests
system.cpu0.itb.wrMisses                        11327                       # TLB misses on write requests
system.cpu0.workload.numSyscalls                    0                       # Number of system calls
system.cpu0.pwrStateResidencyTicks::ON    15267344125                       # Cumulative time (in ticks) in various power states
system.cpu0.numCycles                        30534688                       # number of cpu cycles simulated
system.cpu0.numWorkItemsStarted                     0                       # number of work items this cpu started
system.cpu0.numWorkItemsCompleted                   0                       # number of work items this cpu completed
system.cpu0.fetch.icacheStallCycles           2021778                       # Number of cycles fetch is stalled on an Icache miss
system.cpu0.fetch.Insts                       7306712                       # Number of instructions fetch has processed
system.cpu0.fetch.Branches                    2447595                       # Number of branches that fetch encountered
system.cpu0.fetch.predictedBranches           1095507                       # Number of branches that fetch has predicted taken
system.cpu0.fetch.Cycles                     28232661                       # Number of cycles fetch has run and was not squashing or blocked
system.cpu0.fetch.SquashCycles                 240146                       # Number of cycles fetch has spent squashing
system.cpu0.fetch.TlbCycles                      3586                       # Number of cycles fetch has spent waiting for tlb
system.cpu0.fetch.MiscStallCycles                2607                       # Number of cycles fetch has spent waiting on interrupts, or bad addresses, or out of MSHRs
system.cpu0.fetch.PendingTrapStallCycles        90939                       # Number of stall cycles due to pending traps
system.cpu0.fetch.CacheLines                  1959637                       # Number of cache lines fetched
system.cpu0.fetch.IcacheSquashes                16718                       # Number of outstanding Icache misses that were squashed
system.cpu0.fetch.ItlbSquashes                      9                       # Number of outstanding ITLB misses that were squashed
system.cpu0.fetch.rateDist::samples          30471644                       # Number of instructions fetched each cycle (Total)
system.cpu0.fetch.rateDist::mean             0.483728                       # Number of instructions fetched each cycle (Total)
system.cpu0.fetch.rateDist::stdev            1.736294                       # Number of instructions fetched each cycle (Total)
system.cpu0.fetch.rateDist::underflows              0      0.00%      0.00% # Number of instructions fetched each cycle (Total)
system.cpu0.fetch.rateDist::0                27687351     90.86%     90.86% # Number of instructions fetched each cycle (Total)
system.cpu0.fetch.rateDist::1                   34257      0.11%     90.98% # Number of instructions fetched each cycle (Total)
system.cpu0.fetch.rateDist::2                  936568      3.07%     94.05% # Number of instructions fetched each cycle (Total)
system.cpu0.fetch.rateDist::3                   48977      0.16%     94.21% # Number of instructions fetched each cycle (Total)
system.cpu0.fetch.rateDist::4                  193480      0.63%     94.84% # Number of instructions fetched each cycle (Total)
system.cpu0.fetch.rateDist::5                  120896      0.40%     95.24% # Number of instructions fetched each cycle (Total)
system.cpu0.fetch.rateDist::6                  125688      0.41%     95.65% # Number of instructions fetched each cycle (Total)
system.cpu0.fetch.rateDist::7                   42267      0.14%     95.79% # Number of instructions fetched each cycle (Total)
system.cpu0.fetch.rateDist::8                 1282160      4.21%    100.00% # Number of instructions fetched each cycle (Total)
system.cpu0.fetch.rateDist::overflows               0      0.00%    100.00% # Number of instructions fetched each cycle (Total)
system.cpu0.fetch.rateDist::min_value               0                       # Number of instructions fetched each cycle (Total)
system.cpu0.fetch.rateDist::max_value               8                       # Number of instructions fetched each cycle (Total)
system.cpu0.fetch.rateDist::total            30471644                       # Number of instructions fetched each cycle (Total)
system.cpu0.fetch.branchRate                 0.080158                       # Number of branch fetches per cycle
system.cpu0.fetch.rate                       0.239292                       # Number of inst fetches per cycle
system.cpu0.decode.IdleCycles                 1072120                       # Number of cycles decode is idle
system.cpu0.decode.BlockedCycles             27402992                       # Number of cycles decode is blocked
system.cpu0.decode.RunCycles                  1428367                       # Number of cycles decode is running
system.cpu0.decode.UnblockCycles               448092                       # Number of cycles decode is unblocking
system.cpu0.decode.SquashCycles                120073                       # Number of cycles decode is squashing
system.cpu0.decode.DecodedInsts              12238450                       # Number of instructions handled by decode
system.cpu0.rename.SquashCycles                120073                       # Number of cycles rename is squashing
system.cpu0.rename.IdleCycles                 1229051                       # Number of cycles rename is idle
system.cpu0.rename.BlockCycles               25661225                       # Number of cycles rename is blocking
system.cpu0.rename.serializeStallCycles         30362                       # count of cycles rename stalled for serializing inst
system.cpu0.rename.RunCycles                  1619016                       # Number of cycles rename is running
system.cpu0.rename.UnblockCycles              1811917                       # Number of cycles rename is unblocking
system.cpu0.rename.RenamedInsts              11703049                       # Number of instructions processed by rename
system.cpu0.rename.ROBFullEvents               114228                       # Number of times rename has blocked due to ROB full
system.cpu0.rename.IQFullEvents               1391791                       # Number of times rename has blocked due to IQ full
system.cpu0.rename.LQFullEvents                356735                       # Number of times rename has blocked due to LQ full
system.cpu0.rename.SQFullEvents                  1016                       # Number of times rename has blocked due to SQ full
system.cpu0.rename.RenamedOperands           13936103                       # Number of destination operands rename has renamed
system.cpu0.rename.RenameLookups             32297639                       # Number of register rename lookups that rename has made
system.cpu0.rename.int_rename_lookups        15552526                       # Number of integer rename lookups
system.cpu0.rename.fp_rename_lookups            65056                       # Number of floating rename lookups
system.cpu0.rename.CommittedMaps              4808880                       # Number of HB maps that are committed
system.cpu0.rename.UndoneMaps                 9127226                       # Number of HB maps that are undone due to squashing
system.cpu0.rename.serializingInsts               451                       # count of serializing insts renamed
system.cpu0.rename.tempSerializingInsts           574                       # count of temporary serializing insts renamed
system.cpu0.rename.skidInsts                  2772477                       # count of insts added to the skid buffer
system.cpu0.memDep0.insertedLoads             2055113                       # Number of loads inserted to the mem dependence unit.
system.cpu0.memDep0.insertedStores             143229                       # Number of stores inserted to the mem dependence unit.
system.cpu0.memDep0.conflictingLoads             6029                       # Number of conflicting loads.
system.cpu0.memDep0.conflictingStores            8015                       # Number of conflicting stores.
system.cpu0.iq.iqInstsAdded                  11021493                       # Number of instructions added to the IQ (excludes non-spec)
system.cpu0.iq.iqNonSpecInstsAdded               8450                       # Number of non-speculative instructions added to the IQ
system.cpu0.iq.iqInstsIssued                  7982367                       # Number of instructions issued
system.cpu0.iq.iqSquashedInstsIssued            12018                       # Number of squashed instructions issued
system.cpu0.iq.iqSquashedInstsExamined        7024024                       # Number of squashed instructions iterated over during squash; mainly for profiling
system.cpu0.iq.iqSquashedOperandsExamined     14028174                       # Number of squashed operands that are examined and possibly removed from graph
system.cpu0.iq.iqSquashedNonSpecRemoved          8450                       # Number of squashed non-spec instructions that were removed
system.cpu0.iq.issued_per_cycle::samples     30471644                       # Number of insts issued each cycle
system.cpu0.iq.issued_per_cycle::mean        0.261960                       # Number of insts issued each cycle
system.cpu0.iq.issued_per_cycle::stdev       0.943352                       # Number of insts issued each cycle
system.cpu0.iq.issued_per_cycle::underflows            0      0.00%      0.00% # Number of insts issued each cycle
system.cpu0.iq.issued_per_cycle::0           27358294     89.78%     89.78% # Number of insts issued each cycle
system.cpu0.iq.issued_per_cycle::1            1152680      3.78%     93.57% # Number of insts issued each cycle
system.cpu0.iq.issued_per_cycle::2             648977      2.13%     95.70% # Number of insts issued each cycle
system.cpu0.iq.issued_per_cycle::3             450193      1.48%     97.17% # Number of insts issued each cycle
system.cpu0.iq.issued_per_cycle::4             471147      1.55%     98.72% # Number of insts issued each cycle
system.cpu0.iq.issued_per_cycle::5             168790      0.55%     99.27% # Number of insts issued each cycle
system.cpu0.iq.issued_per_cycle::6             134023      0.44%     99.71% # Number of insts issued each cycle
system.cpu0.iq.issued_per_cycle::7              51842      0.17%     99.88% # Number of insts issued each cycle
system.cpu0.iq.issued_per_cycle::8              35698      0.12%    100.00% # Number of insts issued each cycle
system.cpu0.iq.issued_per_cycle::overflows            0      0.00%    100.00% # Number of insts issued each cycle
system.cpu0.iq.issued_per_cycle::min_value            0                       # Number of insts issued each cycle
system.cpu0.iq.issued_per_cycle::max_value            8                       # Number of insts issued each cycle
system.cpu0.iq.issued_per_cycle::total       30471644                       # Number of insts issued each cycle
system.cpu0.iq.fu_full::No_OpClass                  0      0.00%      0.00% # attempts to use FU when none available
system.cpu0.iq.fu_full::IntAlu                  21018     68.96%     68.96% # attempts to use FU when none available
system.cpu0.iq.fu_full::IntMult                     0      0.00%     68.96% # attempts to use FU when none available
system.cpu0.iq.fu_full::IntDiv                      0      0.00%     68.96% # attempts to use FU when none available
system.cpu0.iq.fu_full::FloatAdd                 1978      6.49%     75.45% # attempts to use FU when none available
system.cpu0.iq.fu_full::FloatCmp                    0      0.00%     75.45% # attempts to use FU when none available
system.cpu0.iq.fu_full::FloatCvt                    0      0.00%     75.45% # attempts to use FU when none available
system.cpu0.iq.fu_full::FloatMult                   0      0.00%     75.45% # attempts to use FU when none available
system.cpu0.iq.fu_full::FloatMultAcc                0      0.00%     75.45% # attempts to use FU when none available
system.cpu0.iq.fu_full::FloatDiv                    0      0.00%     75.45% # attempts to use FU when none available
system.cpu0.iq.fu_full::FloatMisc                   0      0.00%     75.45% # attempts to use FU when none available
system.cpu0.iq.fu_full::FloatSqrt                   0      0.00%     75.45% # attempts to use FU when none available
system.cpu0.iq.fu_full::SimdAdd                     0      0.00%     75.45% # attempts to use FU when none available
system.cpu0.iq.fu_full::SimdAddAcc                  0      0.00%     75.45% # attempts to use FU when none available
system.cpu0.iq.fu_full::SimdAlu                     0      0.00%     75.45% # attempts to use FU when none available
system.cpu0.iq.fu_full::SimdCmp                     0      0.00%     75.45% # attempts to use FU when none available
system.cpu0.iq.fu_full::SimdCvt                     0      0.00%     75.45% # attempts to use FU when none available
system.cpu0.iq.fu_full::SimdMisc                    0      0.00%     75.45% # attempts to use FU when none available
system.cpu0.iq.fu_full::SimdMult                    0      0.00%     75.45% # attempts to use FU when none available
system.cpu0.iq.fu_full::SimdMultAcc                 0      0.00%     75.45% # attempts to use FU when none available
system.cpu0.iq.fu_full::SimdShift                   0      0.00%     75.45% # attempts to use FU when none available
system.cpu0.iq.fu_full::SimdShiftAcc                0      0.00%     75.45% # attempts to use FU when none available
system.cpu0.iq.fu_full::SimdSqrt                    0      0.00%     75.45% # attempts to use FU when none available
system.cpu0.iq.fu_full::SimdFloatAdd                0      0.00%     75.45% # attempts to use FU when none available
system.cpu0.iq.fu_full::SimdFloatAlu                0      0.00%     75.45% # attempts to use FU when none available
system.cpu0.iq.fu_full::SimdFloatCmp                0      0.00%     75.45% # attempts to use FU when none available
system.cpu0.iq.fu_full::SimdFloatCvt                0      0.00%     75.45% # attempts to use FU when none available
system.cpu0.iq.fu_full::SimdFloatDiv                0      0.00%     75.45% # attempts to use FU when none available
system.cpu0.iq.fu_full::SimdFloatMisc               0      0.00%     75.45% # attempts to use FU when none available
system.cpu0.iq.fu_full::SimdFloatMult               0      0.00%     75.45% # attempts to use FU when none available
system.cpu0.iq.fu_full::SimdFloatMultAcc            0      0.00%     75.45% # attempts to use FU when none available
system.cpu0.iq.fu_full::SimdFloatSqrt               0      0.00%     75.45% # attempts to use FU when none available
system.cpu0.iq.fu_full::MemRead                  6744     22.13%     97.58% # attempts to use FU when none available
system.cpu0.iq.fu_full::MemWrite                  514      1.69%     99.26% # attempts to use FU when none available
system.cpu0.iq.fu_full::FloatMemRead              166      0.54%     99.81% # attempts to use FU when none available
system.cpu0.iq.fu_full::FloatMemWrite              59      0.19%    100.00% # attempts to use FU when none available
system.cpu0.iq.fu_full::IprAccess                   0      0.00%    100.00% # attempts to use FU when none available
system.cpu0.iq.fu_full::InstPrefetch                0      0.00%    100.00% # attempts to use FU when none available
system.cpu0.iq.FU_type_0::No_OpClass            33876      0.42%      0.42% # Type of FU issued
system.cpu0.iq.FU_type_0::IntAlu              6534199     81.86%     82.28% # Type of FU issued
system.cpu0.iq.FU_type_0::IntMult                2187      0.03%     82.31% # Type of FU issued
system.cpu0.iq.FU_type_0::IntDiv                18219      0.23%     82.54% # Type of FU issued
system.cpu0.iq.FU_type_0::FloatAdd              25071      0.31%     82.85% # Type of FU issued
system.cpu0.iq.FU_type_0::FloatCmp                  0      0.00%     82.85% # Type of FU issued
system.cpu0.iq.FU_type_0::FloatCvt                  0      0.00%     82.85% # Type of FU issued
system.cpu0.iq.FU_type_0::FloatMult                 0      0.00%     82.85% # Type of FU issued
system.cpu0.iq.FU_type_0::FloatMultAcc              0      0.00%     82.85% # Type of FU issued
system.cpu0.iq.FU_type_0::FloatDiv                  0      0.00%     82.85% # Type of FU issued
system.cpu0.iq.FU_type_0::FloatMisc                 0      0.00%     82.85% # Type of FU issued
system.cpu0.iq.FU_type_0::FloatSqrt                 0      0.00%     82.85% # Type of FU issued
system.cpu0.iq.FU_type_0::SimdAdd                   0      0.00%     82.85% # Type of FU issued
system.cpu0.iq.FU_type_0::SimdAddAcc                0      0.00%     82.85% # Type of FU issued
system.cpu0.iq.FU_type_0::SimdAlu                   0      0.00%     82.85% # Type of FU issued
system.cpu0.iq.FU_type_0::SimdCmp                   0      0.00%     82.85% # Type of FU issued
system.cpu0.iq.FU_type_0::SimdCvt                   0      0.00%     82.85% # Type of FU issued
system.cpu0.iq.FU_type_0::SimdMisc                  0      0.00%     82.85% # Type of FU issued
system.cpu0.iq.FU_type_0::SimdMult                  0      0.00%     82.85% # Type of FU issued
system.cpu0.iq.FU_type_0::SimdMultAcc               0      0.00%     82.85% # Type of FU issued
system.cpu0.iq.FU_type_0::SimdShift                 0      0.00%     82.85% # Type of FU issued
system.cpu0.iq.FU_type_0::SimdShiftAcc              0      0.00%     82.85% # Type of FU issued
system.cpu0.iq.FU_type_0::SimdSqrt                  0      0.00%     82.85% # Type of FU issued
system.cpu0.iq.FU_type_0::SimdFloatAdd              0      0.00%     82.85% # Type of FU issued
system.cpu0.iq.FU_type_0::SimdFloatAlu              0      0.00%     82.85% # Type of FU issued
system.cpu0.iq.FU_type_0::SimdFloatCmp              0      0.00%     82.85% # Type of FU issued
system.cpu0.iq.FU_type_0::SimdFloatCvt              0      0.00%     82.85% # Type of FU issued
system.cpu0.iq.FU_type_0::SimdFloatDiv              0      0.00%     82.85% # Type of FU issued
system.cpu0.iq.FU_type_0::SimdFloatMisc             0      0.00%     82.85% # Type of FU issued
system.cpu0.iq.FU_type_0::SimdFloatMult             0      0.00%     82.85% # Type of FU issued
system.cpu0.iq.FU_type_0::SimdFloatMultAcc            0      0.00%     82.85% # Type of FU issued
system.cpu0.iq.FU_type_0::SimdFloatSqrt             0      0.00%     82.85% # Type of FU issued
system.cpu0.iq.FU_type_0::MemRead             1260464     15.79%     98.64% # Type of FU issued
system.cpu0.iq.FU_type_0::MemWrite             103729      1.30%     99.94% # Type of FU issued
system.cpu0.iq.FU_type_0::FloatMemRead           4405      0.06%    100.00% # Type of FU issued
system.cpu0.iq.FU_type_0::FloatMemWrite           217      0.00%    100.00% # Type of FU issued
system.cpu0.iq.FU_type_0::IprAccess                 0      0.00%    100.00% # Type of FU issued
system.cpu0.iq.FU_type_0::InstPrefetch              0      0.00%    100.00% # Type of FU issued
system.cpu0.iq.FU_type_0::total               7982367                       # Type of FU issued
system.cpu0.iq.rate                          0.261420                       # Inst issue rate
system.cpu0.iq.fu_busy_cnt                      30479                       # FU busy when requested
system.cpu0.iq.fu_busy_rate                  0.003818                       # FU busy rate (busy events/executed inst)
system.cpu0.iq.int_inst_queue_reads          46416919                       # Number of integer instruction queue reads
system.cpu0.iq.int_inst_queue_writes         18000505                       # Number of integer instruction queue writes
system.cpu0.iq.int_inst_queue_wakeup_accesses      7605045                       # Number of integer instruction queue wakeup accesses
system.cpu0.iq.fp_inst_queue_reads              61956                       # Number of floating instruction queue reads
system.cpu0.iq.fp_inst_queue_writes             53464                       # Number of floating instruction queue writes
system.cpu0.iq.fp_inst_queue_wakeup_accesses        27497                       # Number of floating instruction queue wakeup accesses
system.cpu0.iq.vec_inst_queue_reads                 0                       # Number of vector instruction queue reads
system.cpu0.iq.vec_inst_queue_writes                0                       # Number of vector instruction queue writes
system.cpu0.iq.vec_inst_queue_wakeup_accesses            0                       # Number of vector instruction queue wakeup accesses
system.cpu0.iq.int_alu_accesses               7947060                       # Number of integer alu accesses
system.cpu0.iq.fp_alu_accesses                  31910                       # Number of floating point alu accesses
system.cpu0.iq.vec_alu_accesses                     0                       # Number of vector alu accesses
system.cpu0.iew.lsq.thread0.forwLoads            8116                       # Number of loads that had data forwarded from stores
system.cpu0.iew.lsq.thread0.invAddrLoads            0                       # Number of loads ignored due to an invalid address
system.cpu0.iew.lsq.thread0.squashedLoads      1317134                       # Number of loads squashed
system.cpu0.iew.lsq.thread0.ignoredResponses          394                       # Number of memory responses ignored because the instruction is squashed
system.cpu0.iew.lsq.thread0.memOrderViolation            2                       # Number of memory ordering violations
system.cpu0.iew.lsq.thread0.squashedStores        90427                       # Number of stores squashed
system.cpu0.iew.lsq.thread0.invAddrSwpfs            0                       # Number of software prefetches ignored due to an invalid address
system.cpu0.iew.lsq.thread0.blockedLoads            0                       # Number of blocked loads due to partial load-store forwarding
system.cpu0.iew.lsq.thread0.rescheduledLoads           79                       # Number of loads that were rescheduled
system.cpu0.iew.lsq.thread0.cacheBlocked         2110                       # Number of times an access to memory failed due to the cache being blocked
system.cpu0.iew.iewIdleCycles                       0                       # Number of cycles IEW is idle
system.cpu0.iew.iewSquashCycles                120073                       # Number of cycles IEW is squashing
system.cpu0.iew.iewBlockCycles               23007151                       # Number of cycles IEW is blocking
system.cpu0.iew.iewUnblockCycles               350298                       # Number of cycles IEW is unblocking
system.cpu0.iew.iewDispatchedInsts           11029943                       # Number of instructions dispatched to IQ
system.cpu0.iew.iewDispSquashedInsts             8236                       # Number of squashed instructions skipped by dispatch
system.cpu0.iew.iewDispLoadInsts              2055113                       # Number of dispatched load instructions
system.cpu0.iew.iewDispStoreInsts              143229                       # Number of dispatched store instructions
system.cpu0.iew.iewDispNonSpecInsts              3094                       # Number of dispatched non-speculative instructions
system.cpu0.iew.iewIQFullEvents                 27294                       # Number of times the IQ has become full, causing a stall
system.cpu0.iew.iewLSQFullEvents                94248                       # Number of times the LSQ has become full, causing a stall
system.cpu0.iew.memOrderViolationEvents             2                       # Number of memory order violations
system.cpu0.iew.predictedTakenIncorrect         59905                       # Number of branches that were predicted taken incorrectly
system.cpu0.iew.predictedNotTakenIncorrect        74463                       # Number of branches that were predicted not taken incorrectly
system.cpu0.iew.branchMispredicts              134368                       # Number of branch mispredicts detected at execute
system.cpu0.iew.iewExecutedInsts              7806938                       # Number of executed instructions
system.cpu0.iew.iewExecLoadInsts              1197336                       # Number of load instructions executed
system.cpu0.iew.iewExecSquashedInsts           175429                       # Number of squashed instructions skipped in execute
system.cpu0.iew.exec_swp                            0                       # number of swp insts executed
system.cpu0.iew.exec_nop                            0                       # number of nop insts executed
system.cpu0.iew.exec_refs                     1293699                       # number of memory reference insts executed
system.cpu0.iew.exec_branches                  923531                       # Number of branches executed
system.cpu0.iew.exec_stores                     96363                       # Number of stores executed
system.cpu0.iew.exec_rate                    0.255674                       # Inst execution rate
system.cpu0.iew.wb_sent                       7666883                       # cumulative count of insts sent to commit
system.cpu0.iew.wb_count                      7632542                       # cumulative count of insts written-back
system.cpu0.iew.wb_producers                  5676919                       # num instructions producing a value
system.cpu0.iew.wb_consumers                  9028170                       # num instructions consuming a value
system.cpu0.iew.wb_rate                      0.249963                       # insts written-back per cycle
system.cpu0.iew.wb_fanout                    0.628801                       # average fanout of values written-back
system.cpu0.commit.commitSquashedInsts        7025300                       # The number of squashed insts skipped by commit
system.cpu0.commit.branchMispredicts           120071                       # The number of times a branch was mispredicted
system.cpu0.commit.committed_per_cycle::samples     29460373                       # Number of insts commited each cycle
system.cpu0.commit.committed_per_cycle::mean     0.135977                       # Number of insts commited each cycle
system.cpu0.commit.committed_per_cycle::stdev     0.694220                       # Number of insts commited each cycle
system.cpu0.commit.committed_per_cycle::underflows            0      0.00%      0.00% # Number of insts commited each cycle
system.cpu0.commit.committed_per_cycle::0     27785706     94.32%     94.32% # Number of insts commited each cycle
system.cpu0.commit.committed_per_cycle::1       754608      2.56%     96.88% # Number of insts commited each cycle
system.cpu0.commit.committed_per_cycle::2       185551      0.63%     97.51% # Number of insts commited each cycle
system.cpu0.commit.committed_per_cycle::3       484212      1.64%     99.15% # Number of insts commited each cycle
system.cpu0.commit.committed_per_cycle::4        94562      0.32%     99.47% # Number of insts commited each cycle
system.cpu0.commit.committed_per_cycle::5        55773      0.19%     99.66% # Number of insts commited each cycle
system.cpu0.commit.committed_per_cycle::6        10861      0.04%     99.70% # Number of insts commited each cycle
system.cpu0.commit.committed_per_cycle::7         7504      0.03%     99.72% # Number of insts commited each cycle
system.cpu0.commit.committed_per_cycle::8        81596      0.28%    100.00% # Number of insts commited each cycle
system.cpu0.commit.committed_per_cycle::overflows            0      0.00%    100.00% # Number of insts commited each cycle
system.cpu0.commit.committed_per_cycle::min_value            0                       # Number of insts commited each cycle
system.cpu0.commit.committed_per_cycle::max_value            8                       # Number of insts commited each cycle
system.cpu0.commit.committed_per_cycle::total     29460373                       # Number of insts commited each cycle
system.cpu0.commit.committedInsts             2006141                       # Number of instructions committed
system.cpu0.commit.committedOps               4005921                       # Number of ops (including micro ops) committed
system.cpu0.commit.swp_count                        0                       # Number of s/w prefetches committed
system.cpu0.commit.refs                        790782                       # Number of memory references committed
system.cpu0.commit.loads                       737980                       # Number of loads committed
system.cpu0.commit.membars                          0                       # Number of memory barriers committed
system.cpu0.commit.branches                    703052                       # Number of branches committed
system.cpu0.commit.vec_insts                        0                       # Number of committed Vector instructions.
system.cpu0.commit.fp_insts                     21084                       # Number of committed floating point instructions.
system.cpu0.commit.int_insts                  3984616                       # Number of committed integer instructions.
system.cpu0.commit.function_calls                9300                       # Number of function calls committed.
system.cpu0.commit.op_class_0::No_OpClass         6341      0.16%      0.16% # Class of committed instruction
system.cpu0.commit.op_class_0::IntAlu         3175082     79.26%     79.42% # Class of committed instruction
system.cpu0.commit.op_class_0::IntMult            372      0.01%     79.43% # Class of committed instruction
system.cpu0.commit.op_class_0::IntDiv           15320      0.38%     79.81% # Class of committed instruction
system.cpu0.commit.op_class_0::FloatAdd         18024      0.45%     80.26% # Class of committed instruction
system.cpu0.commit.op_class_0::FloatCmp             0      0.00%     80.26% # Class of committed instruction
system.cpu0.commit.op_class_0::FloatCvt             0      0.00%     80.26% # Class of committed instruction
system.cpu0.commit.op_class_0::FloatMult            0      0.00%     80.26% # Class of committed instruction
system.cpu0.commit.op_class_0::FloatMultAcc            0      0.00%     80.26% # Class of committed instruction
system.cpu0.commit.op_class_0::FloatDiv             0      0.00%     80.26% # Class of committed instruction
system.cpu0.commit.op_class_0::FloatMisc            0      0.00%     80.26% # Class of committed instruction
system.cpu0.commit.op_class_0::FloatSqrt            0      0.00%     80.26% # Class of committed instruction
system.cpu0.commit.op_class_0::SimdAdd              0      0.00%     80.26% # Class of committed instruction
system.cpu0.commit.op_class_0::SimdAddAcc            0      0.00%     80.26% # Class of committed instruction
system.cpu0.commit.op_class_0::SimdAlu              0      0.00%     80.26% # Class of committed instruction
system.cpu0.commit.op_class_0::SimdCmp              0      0.00%     80.26% # Class of committed instruction
system.cpu0.commit.op_class_0::SimdCvt              0      0.00%     80.26% # Class of committed instruction
system.cpu0.commit.op_class_0::SimdMisc             0      0.00%     80.26% # Class of committed instruction
system.cpu0.commit.op_class_0::SimdMult             0      0.00%     80.26% # Class of committed instruction
system.cpu0.commit.op_class_0::SimdMultAcc            0      0.00%     80.26% # Class of committed instruction
system.cpu0.commit.op_class_0::SimdShift            0      0.00%     80.26% # Class of committed instruction
system.cpu0.commit.op_class_0::SimdShiftAcc            0      0.00%     80.26% # Class of committed instruction
system.cpu0.commit.op_class_0::SimdSqrt             0      0.00%     80.26% # Class of committed instruction
system.cpu0.commit.op_class_0::SimdFloatAdd            0      0.00%     80.26% # Class of committed instruction
system.cpu0.commit.op_class_0::SimdFloatAlu            0      0.00%     80.26% # Class of committed instruction
system.cpu0.commit.op_class_0::SimdFloatCmp            0      0.00%     80.26% # Class of committed instruction
system.cpu0.commit.op_class_0::SimdFloatCvt            0      0.00%     80.26% # Class of committed instruction
system.cpu0.commit.op_class_0::SimdFloatDiv            0      0.00%     80.26% # Class of committed instruction
system.cpu0.commit.op_class_0::SimdFloatMisc            0      0.00%     80.26% # Class of committed instruction
system.cpu0.commit.op_class_0::SimdFloatMult            0      0.00%     80.26% # Class of committed instruction
system.cpu0.commit.op_class_0::SimdFloatMultAcc            0      0.00%     80.26% # Class of committed instruction
system.cpu0.commit.op_class_0::SimdFloatSqrt            0      0.00%     80.26% # Class of committed instruction
system.cpu0.commit.op_class_0::MemRead         734920     18.35%     98.61% # Class of committed instruction
system.cpu0.commit.op_class_0::MemWrite         52802      1.32%     99.92% # Class of committed instruction
system.cpu0.commit.op_class_0::FloatMemRead         3060      0.08%    100.00% # Class of committed instruction
system.cpu0.commit.op_class_0::FloatMemWrite            0      0.00%    100.00% # Class of committed instruction
system.cpu0.commit.op_class_0::IprAccess            0      0.00%    100.00% # Class of committed instruction
system.cpu0.commit.op_class_0::InstPrefetch            0      0.00%    100.00% # Class of committed instruction
system.cpu0.commit.op_class_0::total          4005921                       # Class of committed instruction
system.cpu0.commit.bw_lim_events                81596                       # number cycles where commit BW limit reached
system.cpu0.rob.rob_reads                    40409998                       # The number of ROB reads
system.cpu0.rob.rob_writes                   23076882                       # The number of ROB writes
system.cpu0.timesIdled                            575                       # Number of times that the entire CPU went into an idle state and unscheduled itself
system.cpu0.idleCycles                          63044                       # Total number of cycles that the CPU has spent unscheduled due to idling
system.cpu0.committedInsts                    2006141                       # Number of Instructions Simulated
system.cpu0.committedOps                      4005921                       # Number of Ops (including micro ops) Simulated
system.cpu0.cpi                             15.220609                       # CPI: Cycles Per Instruction
system.cpu0.cpi_total                       15.220609                       # CPI: Total CPI of All Threads
system.cpu0.ipc                              0.065700                       # IPC: Instructions Per Cycle
system.cpu0.ipc_total                        0.065700                       # IPC: Total IPC of All Threads
system.cpu0.int_regfile_reads                 8035280                       # number of integer regfile reads
system.cpu0.int_regfile_writes                6627233                       # number of integer regfile writes
system.cpu0.fp_regfile_reads                    48634                       # number of floating regfile reads
system.cpu0.fp_regfile_writes                   24208                       # number of floating regfile writes
system.cpu0.cc_regfile_reads                  4828721                       # number of cc regfile reads
system.cpu0.cc_regfile_writes                 2141242                       # number of cc regfile writes
system.cpu0.misc_regfile_reads                4040949                       # number of misc regfile reads
system.cpu0.dcache.tags.pwrStateResidencyTicks::UNDEFINED  15267344125                       # Cumulative time (in ticks) in various power states
system.cpu0.dcache.tags.replacements           372775                       # number of replacements
system.cpu0.dcache.tags.tagsinuse                1024                       # Cycle average of tags in use
system.cpu0.dcache.tags.total_refs             580748                       # Total number of references to valid blocks.
system.cpu0.dcache.tags.sampled_refs           372775                       # Sample count of references to valid blocks.
system.cpu0.dcache.tags.avg_refs             1.557905                       # Average number of references to valid blocks.
system.cpu0.dcache.tags.warmup_cycle                0                       # Cycle when the warmup percentage was hit.
system.cpu0.dcache.tags.occ_blocks::cpu0.data         1024                       # Average occupied blocks per requestor
system.cpu0.dcache.tags.occ_percent::cpu0.data            1                       # Average percentage of cache occupancy
system.cpu0.dcache.tags.occ_percent::total            1                       # Average percentage of cache occupancy
system.cpu0.dcache.tags.occ_task_id_blocks::1024         1024                       # Occupied blocks per task id
system.cpu0.dcache.tags.age_task_id_blocks_1024::0          139                       # Occupied blocks per task id
system.cpu0.dcache.tags.age_task_id_blocks_1024::1          831                       # Occupied blocks per task id
system.cpu0.dcache.tags.age_task_id_blocks_1024::2           54                       # Occupied blocks per task id
system.cpu0.dcache.tags.occ_task_id_percent::1024            1                       # Percentage of cache occupancy per task id
system.cpu0.dcache.tags.tag_accesses          5310031                       # Number of tag accesses
system.cpu0.dcache.tags.data_accesses         5310031                       # Number of data accesses
system.cpu0.dcache.pwrStateResidencyTicks::UNDEFINED  15267344125                       # Cumulative time (in ticks) in various power states
system.cpu0.dcache.ReadReq_hits::cpu0.data       529529                       # number of ReadReq hits
system.cpu0.dcache.ReadReq_hits::total         529529                       # number of ReadReq hits
system.cpu0.dcache.WriteReq_hits::cpu0.data        51258                       # number of WriteReq hits
system.cpu0.dcache.WriteReq_hits::total         51258                       # number of WriteReq hits
system.cpu0.dcache.demand_hits::cpu0.data       580787                       # number of demand (read+write) hits
system.cpu0.dcache.demand_hits::total          580787                       # number of demand (read+write) hits
system.cpu0.dcache.overall_hits::cpu0.data       580787                       # number of overall hits
system.cpu0.dcache.overall_hits::total         580787                       # number of overall hits
system.cpu0.dcache.ReadReq_misses::cpu0.data       651983                       # number of ReadReq misses
system.cpu0.dcache.ReadReq_misses::total       651983                       # number of ReadReq misses
system.cpu0.dcache.WriteReq_misses::cpu0.data         1544                       # number of WriteReq misses
system.cpu0.dcache.WriteReq_misses::total         1544                       # number of WriteReq misses
system.cpu0.dcache.demand_misses::cpu0.data       653527                       # number of demand (read+write) misses
system.cpu0.dcache.demand_misses::total        653527                       # number of demand (read+write) misses
system.cpu0.dcache.overall_misses::cpu0.data       653527                       # number of overall misses
system.cpu0.dcache.overall_misses::total       653527                       # number of overall misses
system.cpu0.dcache.ReadReq_miss_latency::cpu0.data  34203156000                       # number of ReadReq miss cycles
system.cpu0.dcache.ReadReq_miss_latency::total  34203156000                       # number of ReadReq miss cycles
system.cpu0.dcache.WriteReq_miss_latency::cpu0.data     65712000                       # number of WriteReq miss cycles
system.cpu0.dcache.WriteReq_miss_latency::total     65712000                       # number of WriteReq miss cycles
system.cpu0.dcache.demand_miss_latency::cpu0.data  34268868000                       # number of demand (read+write) miss cycles
system.cpu0.dcache.demand_miss_latency::total  34268868000                       # number of demand (read+write) miss cycles
system.cpu0.dcache.overall_miss_latency::cpu0.data  34268868000                       # number of overall miss cycles
system.cpu0.dcache.overall_miss_latency::total  34268868000                       # number of overall miss cycles
system.cpu0.dcache.ReadReq_accesses::cpu0.data      1181512                       # number of ReadReq accesses(hits+misses)
system.cpu0.dcache.ReadReq_accesses::total      1181512                       # number of ReadReq accesses(hits+misses)
system.cpu0.dcache.WriteReq_accesses::cpu0.data        52802                       # number of WriteReq accesses(hits+misses)
system.cpu0.dcache.WriteReq_accesses::total        52802                       # number of WriteReq accesses(hits+misses)
system.cpu0.dcache.demand_accesses::cpu0.data      1234314                       # number of demand (read+write) accesses
system.cpu0.dcache.demand_accesses::total      1234314                       # number of demand (read+write) accesses
system.cpu0.dcache.overall_accesses::cpu0.data      1234314                       # number of overall (read+write) accesses
system.cpu0.dcache.overall_accesses::total      1234314                       # number of overall (read+write) accesses
system.cpu0.dcache.ReadReq_miss_rate::cpu0.data     0.551821                       # miss rate for ReadReq accesses
system.cpu0.dcache.ReadReq_miss_rate::total     0.551821                       # miss rate for ReadReq accesses
system.cpu0.dcache.WriteReq_miss_rate::cpu0.data     0.029241                       # miss rate for WriteReq accesses
system.cpu0.dcache.WriteReq_miss_rate::total     0.029241                       # miss rate for WriteReq accesses
system.cpu0.dcache.demand_miss_rate::cpu0.data     0.529466                       # miss rate for demand accesses
system.cpu0.dcache.demand_miss_rate::total     0.529466                       # miss rate for demand accesses
system.cpu0.dcache.overall_miss_rate::cpu0.data     0.529466                       # miss rate for overall accesses
system.cpu0.dcache.overall_miss_rate::total     0.529466                       # miss rate for overall accesses
system.cpu0.dcache.ReadReq_avg_miss_latency::cpu0.data 52460.196048                       # average ReadReq miss latency
system.cpu0.dcache.ReadReq_avg_miss_latency::total 52460.196048                       # average ReadReq miss latency
system.cpu0.dcache.WriteReq_avg_miss_latency::cpu0.data 42559.585492                       # average WriteReq miss latency
system.cpu0.dcache.WriteReq_avg_miss_latency::total 42559.585492                       # average WriteReq miss latency
system.cpu0.dcache.demand_avg_miss_latency::cpu0.data 52436.805212                       # average overall miss latency
[...]
system.l2.ReadSharedReq_hits::cpu0.data        204231                       # number of ReadSharedReq hits
system.l2.ReadSharedReq_hits::total            204231                       # number of ReadSharedReq hits
system.l2.demand_hits::cpu0.data               205257                       # number of demand (read+write) hits
system.l2.demand_hits::total                   205257                       # number of demand (read+write) hits
system.l2.overall_hits::cpu0.data              205257                       # number of overall hits
system.l2.overall_hits::total                  205257                       # number of overall hits
system.l2.ReadExReq_misses::cpu0.data             504                       # number of ReadExReq misses
system.l2.ReadExReq_misses::total                 504                       # number of ReadExReq misses
system.l2.ReadSharedReq_misses::cpu0.data       167014                       # number of ReadSharedReq misses
system.l2.ReadSharedReq_misses::total          167014                       # number of ReadSharedReq misses
system.l2.demand_misses::cpu0.data             167518                       # number of demand (read+write) misses
system.l2.demand_misses::total                 167518                       # number of demand (read+write) misses
system.l2.overall_misses::cpu0.data            167518                       # number of overall misses
system.l2.overall_misses::total                167518                       # number of overall misses
system.l2.ReadExReq_miss_latency::cpu0.data     49425500                       # number of ReadExReq miss cycles
system.l2.ReadExReq_miss_latency::total      49425500                       # number of ReadExReq miss cycles
system.l2.ReadSharedReq_miss_latency::cpu0.data  15978024500                       # number of ReadSharedReq miss cycles
system.l2.ReadSharedReq_miss_latency::total  15978024500                       # number of ReadSharedReq miss cycles
system.l2.demand_miss_latency::cpu0.data  16027450000                       # number of demand (read+write) miss cycles
system.l2.demand_miss_latency::total      16027450000                       # number of demand (read+write) miss cycles
system.l2.overall_miss_latency::cpu0.data  16027450000                       # number of overall miss cycles
system.l2.overall_miss_latency::total     16027450000                       # number of overall miss cycles
system.l2.WritebackDirty_accesses::writebacks         4308                       # number of WritebackDirty accesses(hits+misses)
system.l2.WritebackDirty_accesses::total         4308                       # number of WritebackDirty accesses(hits+misses)
system.l2.ReadExReq_accesses::cpu0.data          1530                       # number of ReadExReq accesses(hits+misses)
system.l2.ReadExReq_accesses::total              1530                       # number of ReadExReq accesses(hits+misses)
system.l2.ReadSharedReq_accesses::cpu0.data       371245                       # number of ReadSharedReq accesses(hits+misses)
system.l2.ReadSharedReq_accesses::total        371245                       # number of ReadSharedReq accesses(hits+misses)
system.l2.demand_accesses::cpu0.data           372775                       # number of demand (read+write) accesses
system.l2.demand_accesses::total               372775                       # number of demand (read+write) accesses
system.l2.overall_accesses::cpu0.data          372775                       # number of overall (read+write) accesses
system.l2.overall_accesses::total              372775                       # number of overall (read+write) accesses
system.l2.ReadExReq_miss_rate::cpu0.data     0.329412                       # miss rate for ReadExReq accesses
system.l2.ReadExReq_miss_rate::total         0.329412                       # miss rate for ReadExReq accesses
system.l2.ReadSharedReq_miss_rate::cpu0.data     0.449875                       # miss rate for ReadSharedReq accesses
system.l2.ReadSharedReq_miss_rate::total     0.449875                       # miss rate for ReadSharedReq accesses
system.l2.demand_miss_rate::cpu0.data        0.449381                       # miss rate for demand accesses
system.l2.demand_miss_rate::total            0.449381                       # miss rate for demand accesses
system.l2.overall_miss_rate::cpu0.data       0.449381                       # miss rate for overall accesses
system.l2.overall_miss_rate::total           0.449381                       # miss rate for overall accesses
system.l2.ReadExReq_avg_miss_latency::cpu0.data 98066.468254                       # average ReadExReq miss latency
system.l2.ReadExReq_avg_miss_latency::total 98066.468254                       # average ReadExReq miss latency
system.l2.ReadSharedReq_avg_miss_latency::cpu0.data 95668.773276                       # average ReadSharedReq miss latency
system.l2.ReadSharedReq_avg_miss_latency::total 95668.773276                       # average ReadSharedReq miss latency
system.l2.demand_avg_miss_latency::cpu0.data 95675.987058                       # average overall miss latency
system.l2.demand_avg_miss_latency::total 95675.987058                       # average overall miss latency
system.l2.overall_avg_miss_latency::cpu0.data 95675.987058                       # average overall miss latency
system.l2.overall_avg_miss_latency::total 95675.987058                       # average overall miss latency
system.l2.blocked_cycles::no_mshrs                  0                       # number of cycles access was blocked
system.l2.blocked_cycles::no_targets                0                       # number of cycles access was blocked
system.l2.blocked::no_mshrs                         0                       # number of cycles access was blocked
system.l2.blocked::no_targets                       0                       # number of cycles access was blocked
system.l2.avg_blocked_cycles::no_mshrs            nan                       # average number of cycles each access was blocked
system.l2.avg_blocked_cycles::no_targets          nan                       # average number of cycles each access was blocked
system.l2.writebacks::writebacks                  627                       # number of writebacks
system.l2.writebacks::total                       627                       # number of writebacks
system.l2.ReadExReq_mshr_misses::cpu0.data          504                       # number of ReadExReq MSHR misses
system.l2.ReadExReq_mshr_misses::total            504                       # number of ReadExReq MSHR misses
system.l2.ReadSharedReq_mshr_misses::cpu0.data       167014                       # number of ReadSharedReq MSHR misses
system.l2.ReadSharedReq_mshr_misses::total       167014                       # number of ReadSharedReq MSHR misses
system.l2.demand_mshr_misses::cpu0.data        167518                       # number of demand (read+write) MSHR misses
system.l2.demand_mshr_misses::total            167518                       # number of demand (read+write) MSHR misses
system.l2.overall_mshr_misses::cpu0.data       167518                       # number of overall MSHR misses
system.l2.overall_mshr_misses::total           167518                       # number of overall MSHR misses
system.l2.ReadExReq_mshr_miss_latency::cpu0.data     44385500                       # number of ReadExReq MSHR miss cycles
system.l2.ReadExReq_mshr_miss_latency::total     44385500                       # number of ReadExReq MSHR miss cycles
system.l2.ReadSharedReq_mshr_miss_latency::cpu0.data  14307894500                       # number of ReadSharedReq MSHR miss cycles
system.l2.ReadSharedReq_mshr_miss_latency::total  14307894500                       # number of ReadSharedReq MSHR miss cycles
system.l2.demand_mshr_miss_latency::cpu0.data  14352280000                       # number of demand (read+write) MSHR miss cycles
system.l2.demand_mshr_miss_latency::total  14352280000                       # number of demand (read+write) MSHR miss cycles
system.l2.overall_mshr_miss_latency::cpu0.data  14352280000                       # number of overall MSHR miss cycles
system.l2.overall_mshr_miss_latency::total  14352280000                       # number of overall MSHR miss cycles
system.l2.ReadExReq_mshr_miss_rate::cpu0.data     0.329412                       # mshr miss rate for ReadExReq accesses
system.l2.ReadExReq_mshr_miss_rate::total     0.329412                       # mshr miss rate for ReadExReq accesses
system.l2.ReadSharedReq_mshr_miss_rate::cpu0.data     0.449875                       # mshr miss rate for ReadSharedReq accesses
system.l2.ReadSharedReq_mshr_miss_rate::total     0.449875                       # mshr miss rate for ReadSharedReq accesses
system.l2.demand_mshr_miss_rate::cpu0.data     0.449381                       # mshr miss rate for demand accesses
system.l2.demand_mshr_miss_rate::total       0.449381                       # mshr miss rate for demand accesses
system.l2.overall_mshr_miss_rate::cpu0.data     0.449381                       # mshr miss rate for overall accesses
system.l2.overall_mshr_miss_rate::total      0.449381                       # mshr miss rate for overall accesses
system.l2.ReadExReq_avg_mshr_miss_latency::cpu0.data 88066.468254                       # average ReadExReq mshr miss latency
system.l2.ReadExReq_avg_mshr_miss_latency::total 88066.468254                       # average ReadExReq mshr miss latency
system.l2.ReadSharedReq_avg_mshr_miss_latency::cpu0.data 85668.833152                       # average ReadSharedReq mshr miss latency
system.l2.ReadSharedReq_avg_mshr_miss_latency::total 85668.833152                       # average ReadSharedReq mshr miss latency
system.l2.demand_avg_mshr_miss_latency::cpu0.data 85676.046753                       # average overall mshr miss latency
system.l2.demand_avg_mshr_miss_latency::total 85676.046753                       # average overall mshr miss latency
system.l2.overall_avg_mshr_miss_latency::cpu0.data 85676.046753                       # average overall mshr miss latency
system.l2.overall_avg_mshr_miss_latency::total 85676.046753                       # average overall mshr miss latency
system.membus.snoop_filter.tot_requests        335033                       # Total number of requests made to the snoop filter.
system.membus.snoop_filter.hit_single_requests       167516                       # Number of requests hitting in the snoop filter with a single holder of the requested data.
system.membus.snoop_filter.hit_multi_requests            0                       # Number of requests hitting in the snoop filter with multiple (>1) holders of the requested data.
system.membus.snoop_filter.tot_snoops               0                       # Total number of snoops made to the snoop filter.
system.membus.snoop_filter.hit_single_snoops            0                       # Number of snoops hitting in the snoop filter with a single holder of the requested data.
system.membus.snoop_filter.hit_multi_snoops            0                       # Number of snoops hitting in the snoop filter with multiple (>1) holders of the requested data.
system.membus.pwrStateResidencyTicks::UNDEFINED  15267344125                       # Cumulative time (in ticks) in various power states
system.membus.trans_dist::ReadResp             167013                       # Transaction distribution
system.membus.trans_dist::WritebackDirty          627                       # Transaction distribution
system.membus.trans_dist::CleanEvict           166888                       # Transaction distribution
system.membus.trans_dist::ReadExReq               504                       # Transaction distribution
system.membus.trans_dist::ReadExResp              504                       # Transaction distribution
system.membus.trans_dist::ReadSharedReq        167014                       # Transaction distribution
system.membus.pkt_count_system.l2.mem_side::system.mem_ctrls.port       502550                       # Packet count per connected master and slave (bytes)
system.membus.pkt_count_system.l2.mem_side::total       502550                       # Packet count per connected master and slave (bytes)
system.membus.pkt_count::total                 502550                       # Packet count per connected master and slave (bytes)
system.membus.pkt_size_system.l2.mem_side::system.mem_ctrls.port     10761216                       # Cumulative packet size per connected master and slave (bytes)
system.membus.pkt_size_system.l2.mem_side::total     10761216                       # Cumulative packet size per connected master and slave (bytes)
system.membus.pkt_size::total                10761216                       # Cumulative packet size per connected master and slave (bytes)
system.membus.snoops                                0                       # Total snoops (count)
system.membus.snoopTraffic                          0                       # Total snoop traffic (bytes)
system.membus.snoop_fanout::samples            167518                       # Request fanout histogram
system.membus.snoop_fanout::mean                    0                       # Request fanout histogram
system.membus.snoop_fanout::stdev                   0                       # Request fanout histogram
system.membus.snoop_fanout::underflows              0      0.00%      0.00% # Request fanout histogram
system.membus.snoop_fanout::0                  167518    100.00%    100.00% # Request fanout histogram
system.membus.snoop_fanout::1                       0      0.00%    100.00% # Request fanout histogram
system.membus.snoop_fanout::overflows               0      0.00%    100.00% # Request fanout histogram
system.membus.snoop_fanout::min_value               0                       # Request fanout histogram
system.membus.snoop_fanout::max_value               0                       # Request fanout histogram
system.membus.snoop_fanout::total              167518                       # Request fanout histogram
system.membus.reqLayer8.occupancy           393183500                       # Layer occupancy (ticks)
system.membus.reqLayer8.utilization               2.6                       # Layer utilization (%)
system.membus.respLayer1.occupancy          910448000                       # Layer occupancy (ticks)
system.membus.respLayer1.utilization              6.0                       # Layer utilization (%)
system.tol2bus.snoop_filter.tot_requests       745550                       # Total number of requests made to the snoop filter.
system.tol2bus.snoop_filter.hit_single_requests       372775                       # Number of requests hitting in the snoop filter with a single holder of the requested data.
system.tol2bus.snoop_filter.hit_multi_requests          823                       # Number of requests hitting in the snoop filter with multiple (>1) holders of the requested data.
system.tol2bus.snoop_filter.tot_snoops              2                       # Total number of snoops made to the snoop filter.
system.tol2bus.snoop_filter.hit_single_snoops            2                       # Number of snoops hitting in the snoop filter with a single holder of the requested data.
system.tol2bus.snoop_filter.hit_multi_snoops            0                       # Number of snoops hitting in the snoop filter with multiple (>1) holders of the requested data.
system.tol2bus.pwrStateResidencyTicks::UNDEFINED  15267344125                       # Cumulative time (in ticks) in various power states
system.tol2bus.trans_dist::ReadResp            371245                       # Transaction distribution
system.tol2bus.trans_dist::WritebackDirty         4935                       # Transaction distribution
system.tol2bus.trans_dist::CleanEvict          535357                       # Transaction distribution
system.tol2bus.trans_dist::ReadExReq             1530                       # Transaction distribution
system.tol2bus.trans_dist::ReadExResp            1530                       # Transaction distribution
system.tol2bus.trans_dist::ReadSharedReq       371245                       # Transaction distribution
system.tol2bus.pkt_count_system.cpu0.dcache.mem_side::system.l2.cpu_side      1118325                       # Packet count per connected master and slave (bytes)
system.tol2bus.pkt_count::total               1118325                       # Packet count per connected master and slave (bytes)
system.tol2bus.pkt_size_system.cpu0.dcache.mem_side::system.l2.cpu_side     24133312                       # Cumulative packet size per connected master and slave (bytes)
system.tol2bus.pkt_size::total               24133312                       # Cumulative packet size per connected master and slave (bytes)
system.tol2bus.snoops                          167517                       # Total snoops (count)
system.tol2bus.snoopTraffic                     40128                       # Total snoop traffic (bytes)
system.tol2bus.snoop_fanout::samples           540292                       # Request fanout histogram
system.tol2bus.snoop_fanout::mean            0.001527                       # Request fanout histogram
system.tol2bus.snoop_fanout::stdev           0.039046                       # Request fanout histogram
system.tol2bus.snoop_fanout::underflows             0      0.00%      0.00% # Request fanout histogram
system.tol2bus.snoop_fanout::0                 539467     99.85%     99.85% # Request fanout histogram
system.tol2bus.snoop_fanout::1                    825      0.15%    100.00% # Request fanout histogram
system.tol2bus.snoop_fanout::2                      0      0.00%    100.00% # Request fanout histogram
system.tol2bus.snoop_fanout::3                      0      0.00%    100.00% # Request fanout histogram
system.tol2bus.snoop_fanout::4                      0      0.00%    100.00% # Request fanout histogram
system.tol2bus.snoop_fanout::5                      0      0.00%    100.00% # Request fanout histogram
system.tol2bus.snoop_fanout::6                      0      0.00%    100.00% # Request fanout histogram
system.tol2bus.snoop_fanout::7                      0      0.00%    100.00% # Request fanout histogram
system.tol2bus.snoop_fanout::8                      0      0.00%    100.00% # Request fanout histogram
system.tol2bus.snoop_fanout::9                      0      0.00%    100.00% # Request fanout histogram
system.tol2bus.snoop_fanout::10                     0      0.00%    100.00% # Request fanout histogram
system.tol2bus.snoop_fanout::11                     0      0.00%    100.00% # Request fanout histogram
system.tol2bus.snoop_fanout::12                     0      0.00%    100.00% # Request fanout histogram
system.tol2bus.snoop_fanout::13                     0      0.00%    100.00% # Request fanout histogram
system.tol2bus.snoop_fanout::14                     0      0.00%    100.00% # Request fanout histogram
system.tol2bus.snoop_fanout::15                     0      0.00%    100.00% # Request fanout histogram
system.tol2bus.snoop_fanout::16                     0      0.00%    100.00% # Request fanout histogram
system.tol2bus.snoop_fanout::overflows              0      0.00%    100.00% # Request fanout histogram
system.tol2bus.snoop_fanout::min_value              0                       # Request fanout histogram
system.tol2bus.snoop_fanout::max_value              1                       # Request fanout histogram
system.tol2bus.snoop_fanout::total             540292                       # Request fanout histogram
system.tol2bus.reqLayer0.occupancy          377083000                       # Layer occupancy (ticks)
system.tol2bus.reqLayer0.utilization              2.5                       # Layer utilization (%)
system.tol2bus.respLayer1.occupancy         559162500                       # Layer occupancy (ticks)
system.tol2bus.respLayer1.utilization             3.7                       # Layer utilization (%)

---------- End Simulation Statistics   ----------
