
---------- Begin Simulation Statistics ----------
sim_seconds                                  0.015267                       # Number of seconds simulated
sim_ticks                                 15267344125                       # Number of ticks simulated
final_tick                               3557291181125                       # Number of ticks from beginning of simulation (restored from checkpoints and never reset)
sim_freq                                 1000000000000                       # Frequency of simulated ticks
host_inst_rate                              102925398                       # Simulator instruction rate (inst/s)
host_op_rate                                190936284                       # Simulator op (including micro ops) rate (op/s)
host_tick_rate                              277552529                       # Simulator tick rate (ticks/s)
host_mem_usage                                2332536                       # Number of bytes of host memory used
host_seconds                                    55.01                       # Real time elapsed on the host
sim_insts                                  5661618634                       # Number of instructions simulated
sim_ops                                   10502837864                       # Number of ops (including micro ops) simulated
system.voltage_domain.voltage                       1                       # Voltage in Volts
system.clk_domain.clock                          1000                       # Clock period in ticks
system.mem_ctrls.pwrStateResidencyTicks::UNDEFINED  15267344125                       # Cumulative time (in ticks) in various power states
system.mem_ctrls.bytes_read::cpu0.data       10915456                       # Number of bytes read from this memory
system.mem_ctrls.bytes_read::total           10915456                       # Number of bytes read from this memory
system.mem_ctrls.bytes_written::writebacks        42688                       # Number of bytes written to this memory
system.mem_ctrls.bytes_written::total           42688                       # Number of bytes written to this memory
system.mem_ctrls.num_reads::cpu0.data          170554                       # Number of read requests responded to by this memory
system.mem_ctrls.num_reads::total              170554                       # Number of read requests responded to by this memory
system.mem_ctrls.num_writes::writebacks           667                       # Number of write requests responded to by this memory
system.mem_ctrls.num_writes::total                667                       # Number of write requests responded to by this memory
system.mem_ctrls.bw_read::cpu0.data         714954475                       # Total read bandwidth from this memory (bytes/s)
system.mem_ctrls.bw_read::total             714954475                       # Total read bandwidth from this memory (bytes/s)
system.mem_ctrls.bw_write::writebacks         2796033                       # Write bandwidth from this memory (bytes/s)
system.mem_ctrls.bw_write::total              2796033                       # Write bandwidth from this memory (bytes/s)
system.mem_ctrls.bw_total::writebacks         2796033                       # Total bandwidth to/from this memory (bytes/s)
system.mem_ctrls.bw_total::cpu0.data        714954475                       # Total bandwidth to/from this memory (bytes/s)
system.mem_ctrls.bw_total::total            717750508                       # Total bandwidth to/from this memory (bytes/s)
system.mem_ctrls.readReqs                      170554                       # Number of read requests accepted
system.mem_ctrls.writeReqs                        667                       # Number of write requests accepted
system.mem_ctrls.readBursts                    170554                       # Number of DRAM read bursts, including those serviced by the write queue
system.mem_ctrls.writeBursts                      667                       # Number of DRAM write bursts, including those merged in the write queue
system.mem_ctrls.bytesReadDRAM               10909376                       # Total number of bytes read from DRAM
system.mem_ctrls.bytesReadWrQ                    6080                       # Total number of bytes read from write queue
system.mem_ctrls.bytesWritten                   42432                       # Total number of bytes written to DRAM
system.mem_ctrls.bytesReadSys                10915456                       # Total read bytes from the system interface side
system.mem_ctrls.bytesWrittenSys                42688                       # Total written bytes from the system interface side
system.mem_ctrls.servicedByWrQ                     95                       # Number of DRAM read bursts serviced by the write queue
system.mem_ctrls.mergedWrBursts                     0                       # Number of DRAM write bursts merged with an existing one
system.mem_ctrls.neitherReadNorWriteReqs            0                       # Number of requests that are neither read nor write
system.mem_ctrls.perBankRdBursts::0             10311                       # Per bank write bursts
system.mem_ctrls.perBankRdBursts::1             10497                       # Per bank write bursts
system.mem_ctrls.perBankRdBursts::2             10523                       # Per bank write bursts
system.mem_ctrls.perBankRdBursts::3             11066                       # Per bank write bursts
system.mem_ctrls.perBankRdBursts::4             11394                       # Per bank write bursts
system.mem_ctrls.perBankRdBursts::5             11280                       # Per bank write bursts
system.mem_ctrls.perBankRdBursts::6             10984                       # Per bank write bursts
system.mem_ctrls.perBankRdBursts::7             10724                       # Per bank write bursts
system.mem_ctrls.perBankRdBursts::8             10582                       # Per bank write bursts
system.mem_ctrls.perBankRdBursts::9             10553                       # Per bank write bursts
system.mem_ctrls.perBankRdBursts::10            10345                       # Per bank write bursts
system.mem_ctrls.perBankRdBursts::11            10635                       # Per bank write bursts
system.mem_ctrls.perBankRdBursts::12            10448                       # Per bank write bursts
system.mem_ctrls.perBankRdBursts::13            10508                       # Per bank write bursts
system.mem_ctrls.perBankRdBursts::14            10286                       # Per bank write bursts
system.mem_ctrls.perBankRdBursts::15            10323                       # Per bank write bursts
system.mem_ctrls.perBankWrBursts::0                 0                       # Per bank write bursts
system.mem_ctrls.perBankWrBursts::1                66                       # Per bank write bursts
system.mem_ctrls.perBankWrBursts::2                 0                       # Per bank write bursts
system.mem_ctrls.perBankWrBursts::3                90                       # Per bank write bursts
system.mem_ctrls.perBankWrBursts::4                11                       # Per bank write bursts
system.mem_ctrls.perBankWrBursts::5                 0                       # Per bank write bursts
system.mem_ctrls.perBankWrBursts::6                 0                       # Per bank write bursts
system.mem_ctrls.perBankWrBursts::7                 2                       # Per bank write bursts
system.mem_ctrls.perBankWrBursts::8                11                       # Per bank write bursts
system.mem_ctrls.perBankWrBursts::9                59                       # Per bank write bursts
system.mem_ctrls.perBankWrBursts::10              124                       # Per bank write bursts
system.mem_ctrls.perBankWrBursts::11              126                       # Per bank write bursts
system.mem_ctrls.perBankWrBursts::12              117                       # Per bank write bursts
system.mem_ctrls.perBankWrBursts::13               57                       # Per bank write bursts
system.mem_ctrls.perBankWrBursts::14                0                       # Per bank write bursts
system.mem_ctrls.perBankWrBursts::15                0                       # Per bank write bursts
system.mem_ctrls.numRdRetry                         0                       # Number of times read queue was full causing retry
system.mem_ctrls.numWrRetry                         0                       # Number of times write queue was full causing retry
system.mem_ctrls.totGap                   15267331000                       # Total gap between requests
system.mem_ctrls.readPktSize::0                     0                       # Read request sizes (log2)
system.mem_ctrls.readPktSize::1                     0                       # Read request sizes (log2)
system.mem_ctrls.readPktSize::2                     0                       # Read request sizes (log2)
system.mem_ctrls.readPktSize::3                     0                       # Read request sizes (log2)
system.mem_ctrls.readPktSize::4                     0                       # Read request sizes (log2)
system.mem_ctrls.readPktSize::5                     0                       # Read request sizes (log2)
system.mem_ctrls.readPktSize::6                170554                       # Read request sizes (log2)
system.mem_ctrls.writePktSize::0                    0                       # Write request sizes (log2)
system.mem_ctrls.writePktSize::1                    0                       # Write request sizes (log2)
system.mem_ctrls.writePktSize::2                    0                       # Write request sizes (log2)
system.mem_ctrls.writePktSize::3                    0                       # Write request sizes (log2)
system.mem_ctrls.writePktSize::4                    0                       # Write request sizes (log2)
system.mem_ctrls.writePktSize::5                    0                       # Write request sizes (log2)
system.mem_ctrls.writePktSize::6                  667                       # Write request sizes (log2)
system.mem_ctrls.rdQLenPdf::0                  131308                       # What read queue length does an incoming req see
system.mem_ctrls.rdQLenPdf::1                   36402                       # What read queue length does an incoming req see
system.mem_ctrls.rdQLenPdf::2                    2673                       # What read queue length does an incoming req see
system.mem_ctrls.rdQLenPdf::3                      76                       # What read queue length does an incoming req see
system.mem_ctrls.rdQLenPdf::4                       0                       # What read queue length does an incoming req see
system.mem_ctrls.rdQLenPdf::5                       0                       # What read queue length does an incoming req see
system.mem_ctrls.rdQLenPdf::6                       0                       # What read queue length does an incoming req see
system.mem_ctrls.rdQLenPdf::7                       0                       # What read queue length does an incoming req see
system.mem_ctrls.rdQLenPdf::8                       0                       # What read queue length does an incoming req see
system.mem_ctrls.rdQLenPdf::9                       0                       # What read queue length does an incoming req see
system.mem_ctrls.rdQLenPdf::10                      0                       # What read queue length does an incoming req see
system.mem_ctrls.rdQLenPdf::11                      0                       # What read queue length does an incoming req see
system.mem_ctrls.rdQLenPdf::12                      0                       # What read queue length does an incoming req see
system.mem_ctrls.rdQLenPdf::13                      0                       # What read queue length does an incoming req see
system.mem_ctrls.rdQLenPdf::14                      0                       # What read queue length does an incoming req see
system.mem_ctrls.rdQLenPdf::15                      0                       # What read queue length does an incoming req see
system.mem_ctrls.rdQLenPdf::16                      0                       # What read queue length does an incoming req see
system.mem_ctrls.rdQLenPdf::17                      0                       # What read queue length does an incoming req see
system.mem_ctrls.rdQLenPdf::18                      0                       # What read queue length does an incoming req see
system.mem_ctrls.rdQLenPdf::19                      0                       # What read queue length does an incoming req see
system.mem_ctrls.rdQLenPdf::20                      0                       # What read queue length does an incoming req see
system.mem_ctrls.rdQLenPdf::21                      0                       # What read queue length does an incoming req see
system.mem_ctrls.rdQLenPdf::22                      0                       # What read queue length does an incoming req see
system.mem_ctrls.rdQLenPdf::23                      0                       # What read queue length does an incoming req see
system.mem_ctrls.rdQLenPdf::24                      0                       # What read queue length does an incoming req see
system.mem_ctrls.rdQLenPdf::25                      0                       # What read queue length does an incoming req see
system.mem_ctrls.rdQLenPdf::26                      0                       # What read queue length does an incoming req see
system.mem_ctrls.rdQLenPdf::27                      0                       # What read queue length does an incoming req see
system.mem_ctrls.rdQLenPdf::28                      0                       # What read queue length does an incoming req see
system.mem_ctrls.rdQLenPdf::29                      0                       # What read queue length does an incoming req see
system.mem_ctrls.rdQLenPdf::30                      0                       # What read queue length does an incoming req see
system.mem_ctrls.rdQLenPdf::31                      0                       # What read queue length does an incoming req see
system.mem_ctrls.wrQLenPdf::0                       0                       # What write queue length does an incoming req see
system.mem_ctrls.wrQLenPdf::1                       0                       # What write queue length does an incoming req see
system.mem_ctrls.wrQLenPdf::2                       0                       # What write queue length does an incoming req see
system.mem_ctrls.wrQLenPdf::3                       0                       # What write queue length does an incoming req see
system.mem_ctrls.wrQLenPdf::4                       0                       # What write queue length does an incoming req see
system.mem_ctrls.wrQLenPdf::5                       0                       # What write queue length does an incoming req see
system.mem_ctrls.wrQLenPdf::6                       0                       # What write queue length does an incoming req see
system.mem_ctrls.wrQLenPdf::7                       0                       # What write queue length does an incoming req see
system.mem_ctrls.wrQLenPdf::8                       0                       # What write queue length does an incoming req see
system.mem_ctrls.wrQLenPdf::9                       0                       # What write queue length does an incoming req see
system.mem_ctrls.wrQLenPdf::10                      0                       # What write queue length does an incoming req see
system.mem_ctrls.wrQLenPdf::11                      0                       # What write queue length does an incoming req see
system.mem_ctrls.wrQLenPdf::12                      0                       # What write queue length does an incoming req see
system.mem_ctrls.wrQLenPdf::13                      0                       # What write queue length does an incoming req see
system.mem_ctrls.wrQLenPdf::14                      0                       # What write queue length does an incoming req see
system.mem_ctrls.wrQLenPdf::15                      3                       # What write queue length does an incoming req see
system.mem_ctrls.wrQLenPdf::16                      4                       # What write queue length does an incoming req see
system.mem_ctrls.wrQLenPdf::17                     42                       # What write queue length does an incoming req see
system.mem_ctrls.wrQLenPdf::18                     42                       # What write queue length does an incoming req see
system.mem_ctrls.wrQLenPdf::19                     42                       # What write queue length does an incoming req see
system.mem_ctrls.wrQLenPdf::20                     42                       # What write queue length does an incoming req see
system.mem_ctrls.wrQLenPdf::21                     41                       # What write queue length does an incoming req see
system.mem_ctrls.wrQLenPdf::22                     41                       # What write queue length does an incoming req see
system.mem_ctrls.wrQLenPdf::23                     41                       # What write queue length does an incoming req see
system.mem_ctrls.wrQLenPdf::24                     41                       # What write queue length does an incoming req see
system.mem_ctrls.wrQLenPdf::25                     41                       # What write queue length does an incoming req see
system.mem_ctrls.wrQLenPdf::26                     41                       # What write queue length does an incoming req see
system.mem_ctrls.wrQLenPdf::27                     41                       # What write queue length does an incoming req see
system.mem_ctrls.wrQLenPdf::28                     41                       # What write queue length does an incoming req see
system.mem_ctrls.wrQLenPdf::29                     41                       # What write queue length does an incoming req see
system.mem_ctrls.wrQLenPdf::30                     41                       # What write queue length does an incoming req see
system.mem_ctrls.wrQLenPdf::31                     41                       # What write queue length does an incoming req see
system.mem_ctrls.wrQLenPdf::32                     41                       # What write queue length does an incoming req see
system.mem_ctrls.wrQLenPdf::33                      0                       # What write queue length does an incoming req see
system.mem_ctrls.wrQLenPdf::34                      0                       # What write queue length does an incoming req see
system.mem_ctrls.wrQLenPdf::35                      0                       # What write queue length does an incoming req see
system.mem_ctrls.wrQLenPdf::36                      0                       # What write queue length does an incoming req see
system.mem_ctrls.wrQLenPdf::37                      0                       # What write queue length does an incoming req see
system.mem_ctrls.wrQLenPdf::38                      0                       # What write queue length does an incoming req see
system.mem_ctrls.wrQLenPdf::39                      0                       # What write queue length does an incoming req see
system.mem_ctrls.wrQLenPdf::40                      0                       # What write queue length does an incoming req see
system.mem_ctrls.wrQLenPdf::41                      0                       # What write queue length does an incoming req see
system.mem_ctrls.wrQLenPdf::42                      0                       # What write queue length does an incoming req see
system.mem_ctrls.wrQLenPdf::43                      0                       # What write queue length does an incoming req see
system.mem_ctrls.wrQLenPdf::44                      0                       # What write queue length does an incoming req see
system.mem_ctrls.wrQLenPdf::45                      0                       # What write queue length does an incoming req see
system.mem_ctrls.wrQLenPdf::46                      0                       # What write queue length does an incoming req see
system.mem_ctrls.wrQLenPdf::47                      0                       # What write queue length does an incoming req see
system.mem_ctrls.wrQLenPdf::48                      0                       # What write queue length does an incoming req see
system.mem_ctrls.wrQLenPdf::49                      0                       # What write queue length does an incoming req see
system.mem_ctrls.wrQLenPdf::50                      0                       # What write queue length does an incoming req see
system.mem_ctrls.wrQLenPdf::51                      0                       # What write queue length does an incoming req see
system.mem_ctrls.wrQLenPdf::52                      0                       # What write queue length does an incoming req see
system.mem_ctrls.wrQLenPdf::53                      0                       # What write queue length does an incoming req see
system.mem_ctrls.wrQLenPdf::54                      0                       # What write queue length does an incoming req see
system.mem_ctrls.wrQLenPdf::55                      0                       # What write queue length does an incoming req see
system.mem_ctrls.wrQLenPdf::56                      0                       # What write queue length does an incoming req see
system.mem_ctrls.wrQLenPdf::57                      0                       # What write queue length does an incoming req see
system.mem_ctrls.wrQLenPdf::58                      0                       # What write queue length does an incoming req see
system.mem_ctrls.wrQLenPdf::59                      0                       # What write queue length does an incoming req see
system.mem_ctrls.wrQLenPdf::60                      0                       # What write queue length does an incoming req see
system.mem_ctrls.wrQLenPdf::61                      0                       # What write queue length does an incoming req see
system.mem_ctrls.wrQLenPdf::62                      0                       # What write queue length does an incoming req see
system.mem_ctrls.wrQLenPdf::63                      0                       # What write queue length does an incoming req see
system.mem_ctrls.bytesPerActivate::samples        94342                       # Bytes accessed per row activation
system.mem_ctrls.bytesPerActivate::mean    116.092345                       # Bytes accessed per row activation
system.mem_ctrls.bytesPerActivate::gmean   100.523290                       # Bytes accessed per row activation
system.mem_ctrls.bytesPerActivate::stdev    70.192022                       # Bytes accessed per row activation
system.mem_ctrls.bytesPerActivate::0-127        48453     51.36%     51.36% # Bytes accessed per row activation
system.mem_ctrls.bytesPerActivate::128-255        38311     40.61%     91.97% # Bytes accessed per row activation
system.mem_ctrls.bytesPerActivate::256-383         6650      7.05%     99.02% # Bytes accessed per row activation
system.mem_ctrls.bytesPerActivate::384-511          816      0.86%     99.88% # Bytes accessed per row activation
system.mem_ctrls.bytesPerActivate::512-639           78      0.08%     99.96% # Bytes accessed per row activation
system.mem_ctrls.bytesPerActivate::640-767           18      0.02%     99.98% # Bytes accessed per row activation
system.mem_ctrls.bytesPerActivate::768-895            9      0.01%     99.99% # Bytes accessed per row activation
system.mem_ctrls.bytesPerActivate::896-1023            2      0.00%     99.99% # Bytes accessed per row activation
system.mem_ctrls.bytesPerActivate::1024-1151            5      0.01%    100.00% # Bytes accessed per row activation
system.mem_ctrls.bytesPerActivate::total        94342                       # Bytes accessed per row activation
system.mem_ctrls.rdPerTurnAround::samples           41                       # Reads before turning the bus around for writes
system.mem_ctrls.rdPerTurnAround::mean    4141.219512                       # Reads before turning the bus around for writes
system.mem_ctrls.rdPerTurnAround::gmean   4003.586347                       # Reads before turning the bus around for writes
system.mem_ctrls.rdPerTurnAround::stdev   1089.855621                       # Reads before turning the bus around for writes
system.mem_ctrls.rdPerTurnAround::2304-2559            3      7.32%      7.32% # Reads before turning the bus around for writes
system.mem_ctrls.rdPerTurnAround::2560-2815            2      4.88%     12.20% # Reads before turning the bus around for writes
system.mem_ctrls.rdPerTurnAround::3072-3327            4      9.76%     21.95% # Reads before turning the bus around for writes
system.mem_ctrls.rdPerTurnAround::3328-3583            6     14.63%     36.59% # Reads before turning the bus around for writes
system.mem_ctrls.rdPerTurnAround::3584-3839            4      9.76%     46.34% # Reads before turning the bus around for writes
system.mem_ctrls.rdPerTurnAround::3840-4095            3      7.32%     53.66% # Reads before turning the bus around for writes
system.mem_ctrls.rdPerTurnAround::4096-4351            1      2.44%     56.10% # Reads before turning the bus around for writes
system.mem_ctrls.rdPerTurnAround::4352-4607            4      9.76%     65.85% # Reads before turning the bus around for writes
system.mem_ctrls.rdPerTurnAround::4608-4863            4      9.76%     75.61% # Reads before turning the bus around for writes
system.mem_ctrls.rdPerTurnAround::4864-5119            4      9.76%     85.37% # Reads before turning the bus around for writes
system.mem_ctrls.rdPerTurnAround::5120-5375            2      4.88%     90.24% # Reads before turning the bus around for writes
system.mem_ctrls.rdPerTurnAround::5632-5887            1      2.44%     92.68% # Reads before turning the bus around for writes
system.mem_ctrls.rdPerTurnAround::6144-6399            2      4.88%     97.56% # Reads before turning the bus around for writes
system.mem_ctrls.rdPerTurnAround::6912-7167            1      2.44%    100.00% # Reads before turning the bus around for writes
system.mem_ctrls.rdPerTurnAround::total            41                       # Reads before turning the bus around for writes
system.mem_ctrls.wrPerTurnAround::samples           41                       # Writes before turning the bus around for reads
system.mem_ctrls.wrPerTurnAround::mean      16.170732                       # Writes before turning the bus around for reads
system.mem_ctrls.wrPerTurnAround::gmean     16.162369                       # Writes before turning the bus around for reads
system.mem_ctrls.wrPerTurnAround::stdev      0.543251                       # Writes before turning the bus around for reads
system.mem_ctrls.wrPerTurnAround::16               37     90.24%     90.24% # Writes before turning the bus around for reads
system.mem_ctrls.wrPerTurnAround::17                1      2.44%     92.68% # Writes before turning the bus around for reads
system.mem_ctrls.wrPerTurnAround::18                3      7.32%    100.00% # Writes before turning the bus around for reads
system.mem_ctrls.wrPerTurnAround::total            41                       # Writes before turning the bus around for reads
system.mem_ctrls.totQLat                   4317211250                       # Total ticks spent queuing
system.mem_ctrls.totMemAccLat              7513317500                       # Total ticks spent from burst creation until serviced by the DRAM
system.mem_ctrls.totBusLat                  852295000                       # Total ticks spent in databus transfers
system.mem_ctrls.avgQLat                     25326.98                       # Average queueing delay per DRAM burst
system.mem_ctrls.avgBusLat                    5000.00                       # Average bus latency per DRAM burst
system.mem_ctrls.avgMemAccLat                44076.98                       # Average memory access latency per DRAM burst
system.mem_ctrls.avgRdBW                       714.56                       # Average DRAM read bandwidth in MiByte/s
system.mem_ctrls.avgWrBW                         2.78                       # Average achieved write bandwidth in MiByte/s
system.mem_ctrls.avgRdBWSys                    714.95                       # Average system read bandwidth in MiByte/s
system.mem_ctrls.avgWrBWSys                      2.80                       # Average system write bandwidth in MiByte/s
system.mem_ctrls.peakBW                      12800.00                       # Theoretical peak bandwidth in MiByte/s
system.mem_ctrls.busUtil                         5.60                       # Data bus utilization in percentage
system.mem_ctrls.busUtilRead                     5.58                       # Data bus utilization in percentage for reads
system.mem_ctrls.busUtilWrite                    0.02                       # Data bus utilization in percentage for writes
system.mem_ctrls.avgRdQLen                       1.28                       # Average read queue length when enqueuing
system.mem_ctrls.avgWrQLen                      25.36                       # Average write queue length when enqueuing
system.mem_ctrls.readRowHits                    76239                       # Number of row buffer hits during reads
system.mem_ctrls.writeRowHits                     543                       # Number of row buffer hits during writes
system.mem_ctrls.readRowHitRate                 44.73                       # Row buffer hit rate for reads
system.mem_ctrls.writeRowHitRate                81.41                       # Row buffer hit rate for writes
system.mem_ctrls.avgGap                      89167.40                       # Average gap between requests
system.mem_ctrls.pageHitRate                    44.87                       # Row buffer hit rate, read and write combined
system.mem_ctrls_0.actEnergy                342013140                       # Energy for activate commands per rank (pJ)
system.mem_ctrls_0.preEnergy                181791885                       # Energy for precharge commands per rank (pJ)
system.mem_ctrls_0.readEnergy               619609200                       # Energy for read commands per rank (pJ)
system.mem_ctrls_0.writeEnergy                 882180                       # Energy for write commands per rank (pJ)
system.mem_ctrls_0.refreshEnergy         1207152960.000000                       # Energy for refresh commands per rank (pJ)
system.mem_ctrls_0.actBackEnergy           1530479640                       # Energy for active background per rank (pJ)
system.mem_ctrls_0.preBackEnergy             25056480                       # Energy for precharge background per rank (pJ)
system.mem_ctrls_0.actPowerDownEnergy      5222402700                       # Energy for active power-down per rank (pJ)
system.mem_ctrls_0.prePowerDownEnergy       148686240                       # Energy for precharge power-down per rank (pJ)
system.mem_ctrls_0.selfRefreshEnergy          3633660                       # Energy for self refresh per rank (pJ)
system.mem_ctrls_0.totalEnergy             9281708085                       # Total energy per rank (pJ)
system.mem_ctrls_0.averagePower            607.945168                       # Core power per rank (mW)
system.mem_ctrls_0.totalIdleTime          11845871750                       # Total Idle time Per DRAM Rank
system.mem_ctrls_0.memoryStateTime::IDLE     10692000                       # Time in different power states
system.mem_ctrls_0.memoryStateTime::REF     510670000                       # Time in different power states
system.mem_ctrls_0.memoryStateTime::SREF      5936500                       # Time in different power states
system.mem_ctrls_0.memoryStateTime::PRE_PDN    387280750                       # Time in different power states
system.mem_ctrls_0.memoryStateTime::ACT    2900110375                       # Time in different power states
system.mem_ctrls_0.memoryStateTime::ACT_PDN  11452654500                       # Time in different power states
system.mem_ctrls_1.actEnergy                331574460                       # Energy for activate commands per rank (pJ)
system.mem_ctrls_1.preEnergy                176236005                       # Energy for precharge commands per rank (pJ)
system.mem_ctrls_1.readEnergy               597475200                       # Energy for read commands per rank (pJ)
system.mem_ctrls_1.writeEnergy                2578680                       # Energy for write commands per rank (pJ)
system.mem_ctrls_1.refreshEnergy         1206538320.000000                       # Energy for refresh commands per rank (pJ)
system.mem_ctrls_1.actBackEnergy           1485397770                       # Energy for active background per rank (pJ)
system.mem_ctrls_1.preBackEnergy             25106400                       # Energy for precharge background per rank (pJ)
system.mem_ctrls_1.actPowerDownEnergy      5258787510                       # Energy for active power-down per rank (pJ)
system.mem_ctrls_1.prePowerDownEnergy       156679200                       # Energy for precharge power-down per rank (pJ)
system.mem_ctrls_1.selfRefreshEnergy          2632020                       # Energy for self refresh per rank (pJ)
system.mem_ctrls_1.totalEnergy             9243005565                       # Total energy per rank (pJ)
system.mem_ctrls_1.averagePower            605.410181                       # Core power per rank (mW)
system.mem_ctrls_1.totalIdleTime          11944681500                       # Total Idle time Per DRAM Rank
system.mem_ctrls_1.memoryStateTime::IDLE     10674000                       # Time in different power states
system.mem_ctrls_1.memoryStateTime::REF     510404000                       # Time in different power states
system.mem_ctrls_1.memoryStateTime::SREF      4063750                       # Time in different power states
system.mem_ctrls_1.memoryStateTime::PRE_PDN    408043500                       # Time in different power states
system.mem_ctrls_1.memoryStateTime::ACT    2801476750                       # Time in different power states
system.mem_ctrls_1.memoryStateTime::ACT_PDN  11532682125                       # Time in different power states
system.pwrStateResidencyTicks::UNDEFINED  15267344125                       # Cumulative time (in ticks) in various power states
system.cpu0.branchPred.lookups                2312968                       # Number of BP lookups
system.cpu0.branchPred.condPredicted          2312968                       # Number of conditional branches predicted
system.cpu0.branchPred.condIncorrect           103718                       # Number of conditional branches incorrect
system.cpu0.branchPred.BTBLookups             1737650                       # Number of BTB lookups
system.cpu0.branchPred.BTBHits                      0                       # Number of BTB hits
system.cpu0.branchPred.BTBCorrect                   0                       # Number of correct BTB predictions (this stat may not work properly.
system.cpu0.branchPred.BTBHitPct             0.000000                       # BTB Hit Percentage
system.cpu0.branchPred.usedRAS                  77582                       # Number of times the RAS was used to get a target.
system.cpu0.branchPred.RASInCorrect             11349                       # Number of incorrect RAS predictions.
system.cpu0.branchPred.indirectLookups        1737650                       # Number of indirect predictor lookups.
system.cpu0.branchPred.indirectHits            966276                       # Number of indirect target hits.
system.cpu0.branchPred.indirectMisses          771374                       # Number of indirect misses.
system.cpu0.branchPredindirectMispredicted        33964                       # Number of mispredicted indirect branches.
system.cpu_voltage_domain.voltage                   1                       # Voltage in Volts
system.cpu_clk_domain.clock                       500                       # Clock period in ticks
system.cpu0.dtb.walker.pwrStateResidencyTicks::UNDEFINED  15267344125                       # Cumulative time (in ticks) in various power states
system.cpu0.dtb.rdAccesses                    1118371                       # TLB accesses on read requests
system.cpu0.dtb.wrAccesses                      87917                       # TLB accesses on write requests
system.cpu0.dtb.rdMisses                       219710                       # TLB misses on read requests
system.cpu0.dtb.wrMisses                         1477                       # TLB misses on write requests
system.cpu0.apic_clk_domain.clock                8000                       # Clock period in ticks
system.cpu0.interrupts.pwrStateResidencyTicks::UNDEFINED  15267344125                       # Cumulative time (in ticks) in various power states
system.cpu0.itb.walker.pwrStateResidencyTicks::UNDEFINED  15267344125                       # Cumulative time (in ticks) in various power states
system.cpu0.itb.rdAccesses                          0                       # TLB accesses on read requests
system.cpu0.itb.wrAccesses                    1884047                       # TLB accesses on write requests
system.cpu0.itb.rdMisses                            0                       # TLB misses on read requests
system.cpu0.itb.wrMisses                         6415                       # TLB misses on write requests
system.cpu0.workload.numSyscalls                    0                       # Number of system calls
system.cpu0.pwrStateResidencyTicks::ON    15267344125                       # Cumulative time (in ticks) in various power states
system.cpu0.numCycles                        30534688                       # number of cpu cycles simulated
system.cpu0.numWorkItemsStarted                     0                       # number of work items this cpu started
system.cpu0.numWorkItemsCompleted                   0                       # number of work items this cpu completed
system.cpu0.fetch.icacheStallCycles           1933161                       # Number of cycles fetch is stalled on an Icache miss
system.cpu0.fetch.Insts                       6862951                       # Number of instructions fetch has processed
system.cpu0.fetch.Branches                    2312968                       # Number of branches that fetch encountered
system.cpu0.fetch.predictedBranches           1043858                       # Number of branches that fetch has predicted taken
system.cpu0.fetch.Cycles                     28378585                       # Number of cycles fetch has run and was not squashing or blocked
system.cpu0.fetch.SquashCycles                 211548                       # Number of cycles fetch has spent squashing
system.cpu0.fetch.TlbCycles                      1801                       # Number of cycles fetch has spent waiting for tlb
system.cpu0.fetch.MiscStallCycles                1438                       # Number of cycles fetch has spent waiting on interrupts, or bad addresses, or out of MSHRs
system.cpu0.fetch.PendingTrapStallCycles        58931                       # Number of stall cycles due to pending traps
system.cpu0.fetch.PendingQuiesceStallCycles           16                       # Number of stall cycles due to pending quiesce instructions
system.cpu0.fetch.CacheLines                  1877632                       # Number of cache lines fetched
system.cpu0.fetch.IcacheSquashes                14179                       # Number of outstanding Icache misses that were squashed
system.cpu0.fetch.ItlbSquashes                      9                       # Number of outstanding ITLB misses that were squashed
system.cpu0.fetch.rateDist::samples          30479706                       # Number of instructions fetched each cycle (Total)
system.cpu0.fetch.rateDist::mean             0.453994                       # Number of instructions fetched each cycle (Total)
system.cpu0.fetch.rateDist::stdev            1.683439                       # Number of instructions fetched each cycle (Total)
system.cpu0.fetch.rateDist::underflows              0      0.00%      0.00% # Number of instructions fetched each cycle (Total)
system.cpu0.fetch.rateDist::0                27850776     91.37%     91.37% # Number of instructions fetched each cycle (Total)
system.cpu0.fetch.rateDist::1                   27288      0.09%     91.46% # Number of instructions fetched each cycle (Total)
system.cpu0.fetch.rateDist::2                  905190      2.97%     94.43% # Number of instructions fetched each cycle (Total)
system.cpu0.fetch.rateDist::3                   45034      0.15%     94.58% # Number of instructions fetched each cycle (Total)
system.cpu0.fetch.rateDist::4                  184310      0.60%     95.19% # Number of instructions fetched each cycle (Total)
system.cpu0.fetch.rateDist::5                  110443      0.36%     95.55% # Number of instructions fetched each cycle (Total)
system.cpu0.fetch.rateDist::6                  119890      0.39%     95.94% # Number of instructions fetched each cycle (Total)
system.cpu0.fetch.rateDist::7                   38157      0.13%     96.07% # Number of instructions fetched each cycle (Total)
system.cpu0.fetch.rateDist::8                 1198618      3.93%    100.00% # Number of instructions fetched each cycle (Total)
system.cpu0.fetch.rateDist::overflows               0      0.00%    100.00% # Number of instructions fetched each cycle (Total)
system.cpu0.fetch.rateDist::min_value               0                       # Number of instructions fetched each cycle (Total)
system.cpu0.fetch.rateDist::max_value               8                       # Number of instructions fetched each cycle (Total)
system.cpu0.fetch.rateDist::total            30479706                       # Number of instructions fetched each cycle (Total)
system.cpu0.fetch.branchRate                 0.075749                       # Number of branch fetches per cycle
system.cpu0.fetch.rate                       0.224759                       # Number of inst fetches per cycle
system.cpu0.decode.IdleCycles                  994299                       # Number of cycles decode is idle
system.cpu0.decode.BlockedCycles             27626745                       # Number of cycles decode is blocked
system.cpu0.decode.RunCycles                  1320918                       # Number of cycles decode is running
system.cpu0.decode.UnblockCycles               431970                       # Number of cycles decode is unblocking
system.cpu0.decode.SquashCycles                105774                       # Number of cycles decode is squashing
system.cpu0.decode.DecodedInsts              11427842                       # Number of instructions handled by decode
system.cpu0.rename.SquashCycles                105774                       # Number of cycles rename is squashing
system.cpu0.rename.IdleCycles                 1141786                       # Number of cycles rename is idle
system.cpu0.rename.BlockCycles               25920511                       # Number of cycles rename is blocking
system.cpu0.rename.serializeStallCycles         19389                       # count of cycles rename stalled for serializing inst
system.cpu0.rename.RunCycles                  1508067                       # Number of cycles rename is running
system.cpu0.rename.UnblockCycles              1784179                       # Number of cycles rename is unblocking
system.cpu0.rename.RenamedInsts              10934504                       # Number of instructions processed by rename
system.cpu0.rename.ROBFullEvents               103724                       # Number of times rename has blocked due to ROB full
system.cpu0.rename.IQFullEvents               1375973                       # Number of times rename has blocked due to IQ full
system.cpu0.rename.LQFullEvents                356814                       # Number of times rename has blocked due to LQ full
system.cpu0.rename.SQFullEvents                  2899                       # Number of times rename has blocked due to SQ full
system.cpu0.rename.RenamedOperands           13047565                       # Number of destination operands rename has renamed
system.cpu0.rename.RenameLookups             30280622                       # Number of register rename lookups that rename has made
system.cpu0.rename.int_rename_lookups        14476798                       # Number of integer rename lookups
system.cpu0.rename.fp_rename_lookups            62214                       # Number of floating rename lookups
system.cpu0.rename.CommittedMaps              4627647                       # Number of HB maps that are committed
system.cpu0.rename.UndoneMaps                 8419852                       # Number of HB maps that are undone due to squashing
system.cpu0.rename.serializingInsts               327                       # count of serializing insts renamed
system.cpu0.rename.tempSerializingInsts           412                       # count of temporary serializing insts renamed
system.cpu0.rename.skidInsts                  2707138                       # count of insts added to the skid buffer
system.cpu0.memDep0.insertedLoads             1930972                       # Number of loads inserted to the mem dependence unit.
system.cpu0.memDep0.insertedStores             127973                       # Number of stores inserted to the mem dependence unit.
system.cpu0.memDep0.conflictingLoads             6561                       # Number of conflicting loads.
system.cpu0.memDep0.conflictingStores            6542                       # Number of conflicting stores.
system.cpu0.iq.iqInstsAdded                  10333464                       # Number of instructions added to the IQ (excludes non-spec)
system.cpu0.iq.iqNonSpecInstsAdded               7057                       # Number of non-speculative instructions added to the IQ
system.cpu0.iq.iqInstsIssued                  7480884                       # Number of instructions issued
system.cpu0.iq.iqSquashedInstsIssued            10273                       # Number of squashed instructions issued
system.cpu0.iq.iqSquashedInstsExamined        6483949                       # Number of squashed instructions iterated over during squash; mainly for profiling
system.cpu0.iq.iqSquashedOperandsExamined     13170296                       # Number of squashed operands that are examined and possibly removed from graph
system.cpu0.iq.iqSquashedNonSpecRemoved          7057                       # Number of squashed non-spec instructions that were removed
system.cpu0.iq.issued_per_cycle::samples     30479706                       # Number of insts issued each cycle
system.cpu0.iq.issued_per_cycle::mean        0.245438                       # Number of insts issued each cycle
system.cpu0.iq.issued_per_cycle::stdev       0.909532                       # Number of insts issued each cycle
system.cpu0.iq.issued_per_cycle::underflows            0      0.00%      0.00% # Number of insts issued each cycle
system.cpu0.iq.issued_per_cycle::0           27526466     90.31%     90.31% # Number of insts issued each cycle
system.cpu0.iq.issued_per_cycle::1            1106918      3.63%     93.94% # Number of insts issued each cycle
system.cpu0.iq.issued_per_cycle::2             623742      2.05%     95.99% # Number of insts issued each cycle
system.cpu0.iq.issued_per_cycle::3             427339      1.40%     97.39% # Number of insts issued each cycle
system.cpu0.iq.issued_per_cycle::4             442730      1.45%     98.84% # Number of insts issued each cycle
system.cpu0.iq.issued_per_cycle::5             151912      0.50%     99.34% # Number of insts issued each cycle
system.cpu0.iq.issued_per_cycle::6             122361      0.40%     99.74% # Number of insts issued each cycle
system.cpu0.iq.issued_per_cycle::7              46085      0.15%     99.89% # Number of insts issued each cycle
system.cpu0.iq.issued_per_cycle::8              32153      0.11%    100.00% # Number of insts issued each cycle
system.cpu0.iq.issued_per_cycle::overflows            0      0.00%    100.00% # Number of insts issued each cycle
system.cpu0.iq.issued_per_cycle::min_value            0                       # Number of insts issued each cycle
system.cpu0.iq.issued_per_cycle::max_value            8                       # Number of insts issued each cycle
system.cpu0.iq.issued_per_cycle::total       30479706                       # Number of insts issued each cycle
system.cpu0.iq.fu_full::No_OpClass                  0      0.00%      0.00% # attempts to use FU when none available
system.cpu0.iq.fu_full::IntAlu                  19905     70.63%     70.63% # attempts to use FU when none available
system.cpu0.iq.fu_full::IntMult                     0      0.00%     70.63% # attempts to use FU when none available
system.cpu0.iq.fu_full::IntDiv                      0      0.00%     70.63% # attempts to use FU when none available
system.cpu0.iq.fu_full::FloatAdd                 1876      6.66%     77.28% # attempts to use FU when none available
system.cpu0.iq.fu_full::FloatCmp                    0      0.00%     77.28% # attempts to use FU when none available
system.cpu0.iq.fu_full::FloatCvt                    0      0.00%     77.28% # attempts to use FU when none available
system.cpu0.iq.fu_full::FloatMult                   0      0.00%     77.28% # attempts to use FU when none available
system.cpu0.iq.fu_full::FloatMultAcc                0      0.00%     77.28% # attempts to use FU when none available
system.cpu0.iq.fu_full::FloatDiv                    0      0.00%     77.28% # attempts to use FU when none available
system.cpu0.iq.fu_full::FloatMisc                   0      0.00%     77.28% # attempts to use FU when none available
system.cpu0.iq.fu_full::FloatSqrt                   0      0.00%     77.28% # attempts to use FU when none available
system.cpu0.iq.fu_full::SimdAdd                     0      0.00%     77.28% # attempts to use FU when none available
system.cpu0.iq.fu_full::SimdAddAcc                  0      0.00%     77.28% # attempts to use FU when none available
system.cpu0.iq.fu_full::SimdAlu                     0      0.00%     77.28% # attempts to use FU when none available
system.cpu0.iq.fu_full::SimdCmp                     0      0.00%     77.28% # attempts to use FU when none available
system.cpu0.iq.fu_full::SimdCvt                     0      0.00%     77.28% # attempts to use FU when none available
system.cpu0.iq.fu_full::SimdMisc                    0      0.00%     77.28% # attempts to use FU when none available
system.cpu0.iq.fu_full::SimdMult                    0      0.00%     77.28% # attempts to use FU when none available
system.cpu0.iq.fu_full::SimdMultAcc                 0      0.00%     77.28% # attempts to use FU when none available
system.cpu0.iq.fu_full::SimdShift                   0      0.00%     77.28% # attempts to use FU when none available
system.cpu0.iq.fu_full::SimdShiftAcc                0      0.00%     77.28% # attempts to use FU when none available
system.cpu0.iq.fu_full::SimdSqrt                    0      0.00%     77.28% # attempts to use FU when none available
system.cpu0.iq.fu_full::SimdFloatAdd                0      0.00%     77.28% # attempts to use FU when none available
system.cpu0.iq.fu_full::SimdFloatAlu                0      0.00%     77.28% # attempts to use FU when none available
system.cpu0.iq.fu_full::SimdFloatCmp                0      0.00%     77.28% # attempts to use FU when none available
system.cpu0.iq.fu_full::SimdFloatCvt                0      0.00%     77.28% # attempts to use FU when none available
system.cpu0.iq.fu_full::SimdFloatDiv                0      0.00%     77.28% # attempts to use FU when none available
system.cpu0.iq.fu_full::SimdFloatMisc               0      0.00%     77.28% # attempts to use FU when none available
system.cpu0.iq.fu_full::SimdFloatMult               0      0.00%     77.28% # attempts to use FU when none available
system.cpu0.iq.fu_full::SimdFloatMultAcc            0      0.00%     77.28% # attempts to use FU when none available
system.cpu0.iq.fu_full::SimdFloatSqrt               0      0.00%     77.28% # attempts to use FU when none available
system.cpu0.iq.fu_full::MemRead                  5706     20.25%     97.53% # attempts to use FU when none available
system.cpu0.iq.fu_full::MemWrite                  422      1.50%     99.03% # attempts to use FU when none available
system.cpu0.iq.fu_full::FloatMemRead              215      0.76%     99.79% # attempts to use FU when none available
system.cpu0.iq.fu_full::FloatMemWrite              59      0.21%    100.00% # attempts to use FU when none available
system.cpu0.iq.fu_full::IprAccess                   0      0.00%    100.00% # attempts to use FU when none available
system.cpu0.iq.fu_full::InstPrefetch                0      0.00%    100.00% # attempts to use FU when none available
system.cpu0.iq.FU_type_0::No_OpClass            26825      0.36%      0.36% # Type of FU issued
system.cpu0.iq.FU_type_0::IntAlu              6139664     82.07%     82.43% # Type of FU issued
system.cpu0.iq.FU_type_0::IntMult                2042      0.03%     82.46% # Type of FU issued
system.cpu0.iq.FU_type_0::IntDiv                17488      0.23%     82.69% # Type of FU issued
system.cpu0.iq.FU_type_0::FloatAdd              23560      0.31%     83.01% # Type of FU issued
system.cpu0.iq.FU_type_0::FloatCmp                  0      0.00%     83.01% # Type of FU issued
system.cpu0.iq.FU_type_0::FloatCvt                  0      0.00%     83.01% # Type of FU issued
system.cpu0.iq.FU_type_0::FloatMult                 0      0.00%     83.01% # Type of FU issued
system.cpu0.iq.FU_type_0::FloatMultAcc              0      0.00%     83.01% # Type of FU issued
system.cpu0.iq.FU_type_0::FloatDiv                  0      0.00%     83.01% # Type of FU issued
system.cpu0.iq.FU_type_0::FloatMisc                 0      0.00%     83.01% # Type of FU issued
system.cpu0.iq.FU_type_0::FloatSqrt                 0      0.00%     83.01% # Type of FU issued
system.cpu0.iq.FU_type_0::SimdAdd                   0      0.00%     83.01% # Type of FU issued
system.cpu0.iq.FU_type_0::SimdAddAcc                0      0.00%     83.01% # Type of FU issued
system.cpu0.iq.FU_type_0::SimdAlu                   0      0.00%     83.01% # Type of FU issued
system.cpu0.iq.FU_type_0::SimdCmp                   0      0.00%     83.01% # Type of FU issued
system.cpu0.iq.FU_type_0::SimdCvt                   0      0.00%     83.01% # Type of FU issued
system.cpu0.iq.FU_type_0::SimdMisc                  0      0.00%     83.01% # Type of FU issued
system.cpu0.iq.FU_type_0::SimdMult                  0      0.00%     83.01% # Type of FU issued
system.cpu0.iq.FU_type_0::SimdMultAcc               0      0.00%     83.01% # Type of FU issued
system.cpu0.iq.FU_type_0::SimdShift                 0      0.00%     83.01% # Type of FU issued
system.cpu0.iq.FU_type_0::SimdShiftAcc              0      0.00%     83.01% # Type of FU issued
system.cpu0.iq.FU_type_0::SimdSqrt                  0      0.00%     83.01% # Type of FU issued
system.cpu0.iq.FU_type_0::SimdFloatAdd              0      0.00%     83.01% # Type of FU issued
system.cpu0.iq.FU_type_0::SimdFloatAlu              0      0.00%     83.01% # Type of FU issued
system.cpu0.iq.FU_type_0::SimdFloatCmp              0      0.00%     83.01% # Type of FU issued
system.cpu0.iq.FU_type_0::SimdFloatCvt              0      0.00%     83.01% # Type of FU issued
system.cpu0.iq.FU_type_0::SimdFloatDiv              0      0.00%     83.01% # Type of FU issued
system.cpu0.iq.FU_type_0::SimdFloatMisc             0      0.00%     83.01% # Type of FU issued
system.cpu0.iq.FU_type_0::SimdFloatMult             0      0.00%     83.01% # Type of FU issued
system.cpu0.iq.FU_type_0::SimdFloatMultAcc            0      0.00%     83.01% # Type of FU issued
system.cpu0.iq.FU_type_0::SimdFloatSqrt             0      0.00%     83.01% # Type of FU issued
system.cpu0.iq.FU_type_0::MemRead             1172109     15.67%     98.67% # Type of FU issued
system.cpu0.iq.FU_type_0::MemWrite              94303      1.26%     99.93% # Type of FU issued
system.cpu0.iq.FU_type_0::FloatMemRead           4684      0.06%    100.00% # Type of FU issued
system.cpu0.iq.FU_type_0::FloatMemWrite           209      0.00%    100.00% # Type of FU issued
system.cpu0.iq.FU_type_0::IprAccess                 0      0.00%    100.00% # Type of FU issued
system.cpu0.iq.FU_type_0::InstPrefetch              0      0.00%    100.00% # Type of FU issued
system.cpu0.iq.FU_type_0::total               7480884                       # Type of FU issued
system.cpu0.iq.rate                          0.244996                       # Inst issue rate
system.cpu0.iq.fu_busy_cnt                      28183                       # FU busy when requested
system.cpu0.iq.fu_busy_rate                  0.003767                       # FU busy rate (busy events/executed inst)
system.cpu0.iq.int_inst_queue_reads          45420399                       # Number of integer instruction queue reads
system.cpu0.iq.int_inst_queue_writes         16772812                       # Number of integer instruction queue writes
system.cpu0.iq.int_inst_queue_wakeup_accesses      7147634                       # Number of integer instruction queue wakeup accesses
system.cpu0.iq.fp_inst_queue_reads              59531                       # Number of floating instruction queue reads
system.cpu0.iq.fp_inst_queue_writes             51662                       # Number of floating instruction queue writes
system.cpu0.iq.fp_inst_queue_wakeup_accesses        26035                       # Number of floating instruction queue wakeup accesses
system.cpu0.iq.vec_inst_queue_reads                 0                       # Number of vector instruction queue reads
system.cpu0.iq.vec_inst_queue_writes                0                       # Number of vector instruction queue writes
system.cpu0.iq.vec_inst_queue_wakeup_accesses            0                       # Number of vector instruction queue wakeup accesses
system.cpu0.iq.int_alu_accesses               7451624                       # Number of integer alu accesses
system.cpu0.iq.fp_alu_accesses                  30618                       # Number of floating point alu accesses
system.cpu0.iq.vec_alu_accesses                     0                       # Number of vector alu accesses
system.cpu0.iew.lsq.thread0.forwLoads            8823                       # Number of loads that had data forwarded from stores
system.cpu0.iew.lsq.thread0.invAddrLoads            0                       # Number of loads ignored due to an invalid address
system.cpu0.iew.lsq.thread0.squashedLoads      1219726                       # Number of loads squashed
system.cpu0.iew.lsq.thread0.ignoredResponses          288                       # Number of memory responses ignored because the instruction is squashed
system.cpu0.iew.lsq.thread0.memOrderViolation            5                       # Number of memory ordering violations
system.cpu0.iew.lsq.thread0.squashedStores        76620                       # Number of stores squashed
system.cpu0.iew.lsq.thread0.invAddrSwpfs            0                       # Number of software prefetches ignored due to an invalid address
system.cpu0.iew.lsq.thread0.blockedLoads            0                       # Number of blocked loads due to partial load-store forwarding
system.cpu0.iew.lsq.thread0.rescheduledLoads           69                       # Number of loads that were rescheduled
system.cpu0.iew.lsq.thread0.cacheBlocked         2186                       # Number of times an access to memory failed due to the cache being blocked
system.cpu0.iew.iewIdleCycles                       0                       # Number of cycles IEW is idle
system.cpu0.iew.iewSquashCycles                105774                       # Number of cycles IEW is squashing
system.cpu0.iew.iewBlockCycles               23346299                       # Number of cycles IEW is blocking
system.cpu0.iew.iewUnblockCycles               344871                       # Number of cycles IEW is unblocking
system.cpu0.iew.iewDispatchedInsts           10340521                       # Number of instructions dispatched to IQ
system.cpu0.iew.iewDispSquashedInsts             7999                       # Number of squashed instructions skipped by dispatch
system.cpu0.iew.iewDispLoadInsts              1930972                       # Number of dispatched load instructions
system.cpu0.iew.iewDispStoreInsts              127973                       # Number of dispatched store instructions
system.cpu0.iew.iewDispNonSpecInsts              2564                       # Number of dispatched non-speculative instructions
system.cpu0.iew.iewIQFullEvents                 25153                       # Number of times the IQ has become full, causing a stall
system.cpu0.iew.iewLSQFullEvents                93556                       # Number of times the LSQ has become full, causing a stall
system.cpu0.iew.memOrderViolationEvents             5                       # Number of memory order violations
system.cpu0.iew.predictedTakenIncorrect         56620                       # Number of branches that were predicted taken incorrectly
system.cpu0.iew.predictedNotTakenIncorrect        60868                       # Number of branches that were predicted not taken incorrectly
system.cpu0.iew.branchMispredicts              117488                       # Number of branch mispredicts detected at execute
system.cpu0.iew.iewExecutedInsts              7328299                       # Number of executed instructions
system.cpu0.iew.iewExecLoadInsts              1117951                       # Number of load instructions executed
system.cpu0.iew.iewExecSquashedInsts           152585                       # Number of squashed instructions skipped in execute
system.cpu0.iew.exec_swp                            0                       # number of swp insts executed
system.cpu0.iew.exec_nop                            0                       # number of nop insts executed
system.cpu0.iew.exec_refs                     1205848                       # number of memory reference insts executed
system.cpu0.iew.exec_branches                  872053                       # Number of branches executed
system.cpu0.iew.exec_stores                     87897                       # Number of stores executed
system.cpu0.iew.exec_rate                    0.239999                       # Inst execution rate
system.cpu0.iew.wb_sent                       7201647                       # cumulative count of insts sent to commit
system.cpu0.iew.wb_count                      7173669                       # cumulative count of insts written-back
system.cpu0.iew.wb_producers                  5321989                       # num instructions producing a value
system.cpu0.iew.wb_consumers                  8476425                       # num instructions consuming a value
system.cpu0.iew.wb_rate                      0.234935                       # insts written-back per cycle
system.cpu0.iew.wb_fanout                    0.627858                       # average fanout of values written-back
system.cpu0.commit.commitSquashedInsts        6485142                       # The number of squashed insts skipped by commit
system.cpu0.commit.branchMispredicts           105771                       # The number of times a branch was mispredicted
system.cpu0.commit.committed_per_cycle::samples     29552750                       # Number of insts commited each cycle
system.cpu0.commit.committed_per_cycle::mean     0.130496                       # Number of insts commited each cycle
system.cpu0.commit.committed_per_cycle::stdev     0.682468                       # Number of insts commited each cycle
system.cpu0.commit.committed_per_cycle::underflows            0      0.00%      0.00% # Number of insts commited each cycle
system.cpu0.commit.committed_per_cycle::0     27944097     94.56%     94.56% # Number of insts commited each cycle
system.cpu0.commit.committed_per_cycle::1       725584      2.46%     97.01% # Number of insts commited each cycle
system.cpu0.commit.committed_per_cycle::2       177121      0.60%     97.61% # Number of insts commited each cycle
system.cpu0.commit.committed_per_cycle::3       465027      1.57%     99.18% # Number of insts commited each cycle
system.cpu0.commit.committed_per_cycle::4        89304      0.30%     99.49% # Number of insts commited each cycle
system.cpu0.commit.committed_per_cycle::5        54209      0.18%     99.67% # Number of insts commited each cycle
system.cpu0.commit.committed_per_cycle::6         9549      0.03%     99.70% # Number of insts commited each cycle
system.cpu0.commit.committed_per_cycle::7         6822      0.02%     99.73% # Number of insts commited each cycle
system.cpu0.commit.committed_per_cycle::8        81037      0.27%    100.00% # Number of insts commited each cycle
system.cpu0.commit.committed_per_cycle::overflows            0      0.00%    100.00% # Number of insts commited each cycle
system.cpu0.commit.committed_per_cycle::min_value            0                       # Number of insts commited each cycle
system.cpu0.commit.committed_per_cycle::max_value            8                       # Number of insts commited each cycle
system.cpu0.commit.committed_per_cycle::total     29552750                       # Number of insts commited each cycle
system.cpu0.commit.committedInsts             1931361                       # Number of instructions committed
system.cpu0.commit.committedOps               3856512                       # Number of ops (including micro ops) committed
system.cpu0.commit.swp_count                        0                       # Number of s/w prefetches committed
system.cpu0.commit.refs                        762589                       # Number of memory references committed
system.cpu0.commit.loads                       711236                       # Number of loads committed
system.cpu0.commit.membars                          0                       # Number of memory barriers committed
system.cpu0.commit.branches                    676680                       # Number of branches committed
system.cpu0.commit.vec_insts                        0                       # Number of committed Vector instructions.
system.cpu0.commit.fp_insts                     20524                       # Number of committed floating point instructions.
system.cpu0.commit.int_insts                  3835744                       # Number of committed integer instructions.
system.cpu0.commit.function_calls                9050                       # Number of function calls committed.
system.cpu0.commit.op_class_0::No_OpClass         6204      0.16%      0.16% # Class of committed instruction
system.cpu0.commit.op_class_0::IntAlu         3054771     79.21%     79.37% # Class of committed instruction
system.cpu0.commit.op_class_0::IntMult            362      0.01%     79.38% # Class of committed instruction
system.cpu0.commit.op_class_0::IntDiv           15042      0.39%     79.77% # Class of committed instruction
system.cpu0.commit.op_class_0::FloatAdd         17544      0.45%     80.23% # Class of committed instruction
system.cpu0.commit.op_class_0::FloatCmp             0      0.00%     80.23% # Class of committed instruction
system.cpu0.commit.op_class_0::FloatCvt             0      0.00%     80.23% # Class of committed instruction
system.cpu0.commit.op_class_0::FloatMult            0      0.00%     80.23% # Class of committed instruction
system.cpu0.commit.op_class_0::FloatMultAcc            0      0.00%     80.23% # Class of committed instruction
system.cpu0.commit.op_class_0::FloatDiv             0      0.00%     80.23% # Class of committed instruction
system.cpu0.commit.op_class_0::FloatMisc            0      0.00%     80.23% # Class of committed instruction
system.cpu0.commit.op_class_0::FloatSqrt            0      0.00%     80.23% # Class of committed instruction
system.cpu0.commit.op_class_0::SimdAdd              0      0.00%     80.23% # Class of committed instruction
system.cpu0.commit.op_class_0::SimdAddAcc            0      0.00%     80.23% # Class of committed instruction
system.cpu0.commit.op_class_0::SimdAlu              0      0.00%     80.23% # Class of committed instruction
system.cpu0.commit.op_class_0::SimdCmp              0      0.00%     80.23% # Class of committed instruction
system.cpu0.commit.op_class_0::SimdCvt              0      0.00%     80.23% # Class of committed instruction
system.cpu0.commit.op_class_0::SimdMisc             0      0.00%     80.23% # Class of committed instruction
system.cpu0.commit.op_class_0::SimdMult             0      0.00%     80.23% # Class of committed instruction
system.cpu0.commit.op_class_0::SimdMultAcc            0      0.00%     80.23% # Class of committed instruction
system.cpu0.commit.op_class_0::SimdShift            0      0.00%     80.23% # Class of committed instruction
system.cpu0.commit.op_class_0::SimdShiftAcc            0      0.00%     80.23% # Class of committed instruction
system.cpu0.commit.op_class_0::SimdSqrt             0      0.00%     80.23% # Class of committed instruction
system.cpu0.commit.op_class_0::SimdFloatAdd            0      0.00%     80.23% # Class of committed instruction
system.cpu0.commit.op_class_0::SimdFloatAlu            0      0.00%     80.23% # Class of committed instruction
system.cpu0.commit.op_class_0::SimdFloatCmp            0      0.00%     80.23% # Class of committed instruction
system.cpu0.commit.op_class_0::SimdFloatCvt            0      0.00%     80.23% # Class of committed instruction
system.cpu0.commit.op_class_0::SimdFloatDiv            0      0.00%     80.23% # Class of committed instruction
system.cpu0.commit.op_class_0::SimdFloatMisc            0      0.00%     80.23% # Class of committed instruction
system.cpu0.commit.op_class_0::SimdFloatMult            0      0.00%     80.23% # Class of committed instruction
system.cpu0.commit.op_class_0::SimdFloatMultAcc            0      0.00%     80.23% # Class of committed instruction
system.cpu0.commit.op_class_0::SimdFloatSqrt            0      0.00%     80.23% # Class of committed instruction
system.cpu0.commit.op_class_0::MemRead         708256     18.37%     98.59% # Class of committed instruction
system.cpu0.commit.op_class_0::MemWrite         51353      1.33%     99.92% # Class of committed instruction
system.cpu0.commit.op_class_0::FloatMemRead         2980      0.08%    100.00% # Class of committed instruction
system.cpu0.commit.op_class_0::FloatMemWrite            0      0.00%    100.00% # Class of committed instruction
system.cpu0.commit.op_class_0::IprAccess            0      0.00%    100.00% # Class of committed instruction
system.cpu0.commit.op_class_0::InstPrefetch            0      0.00%    100.00% # Class of committed instruction
system.cpu0.commit.op_class_0::total          3856512                       # Class of committed instruction
system.cpu0.commit.bw_lim_events                81037                       # number cycles where commit BW limit reached
system.cpu0.rob.rob_reads                    39813367                       # The number of ROB reads
system.cpu0.rob.rob_writes                   21612906                       # The number of ROB writes
system.cpu0.timesIdled                            470                       # Number of times that the entire CPU went into an idle state and unscheduled itself
system.cpu0.idleCycles                          54982                       # Total number of cycles that the CPU has spent unscheduled due to idling
system.cpu0.committedInsts                    1931361                       # Number of Instructions Simulated
system.cpu0.committedOps                      3856512                       # Number of Ops (including micro ops) Simulated
system.cpu0.cpi                             15.809933                       # CPI: Cycles Per Instruction
system.cpu0.cpi_total                       15.809933                       # CPI: Total CPI of All Threads
system.cpu0.ipc                              0.063251                       # IPC: Instructions Per Cycle
system.cpu0.ipc_total                        0.063251                       # IPC: Total IPC of All Threads
system.cpu0.int_regfile_reads                 7515905                       # number of integer regfile reads
system.cpu0.int_regfile_writes                6228850                       # number of integer regfile writes
system.cpu0.fp_regfile_reads                    45938                       # number of floating regfile reads
system.cpu0.fp_regfile_writes                   22905                       # number of floating regfile writes
system.cpu0.cc_regfile_reads                  4593348                       # number of cc regfile reads
system.cpu0.cc_regfile_writes                 2012741                       # number of cc regfile writes
system.cpu0.misc_regfile_reads                3804882                       # number of misc regfile reads
system.cpu0.dcache.tags.pwrStateResidencyTicks::UNDEFINED  15267344125                       # Cumulative time (in ticks) in various power states
system.cpu0.dcache.tags.replacements           358325                       # number of replacements
system.cpu0.dcache.tags.tagsinuse                1024                       # Cycle average of tags in use
system.cpu0.dcache.tags.total_refs             525590                       # Total number of references to valid blocks.
system.cpu0.dcache.tags.sampled_refs           358325                       # Sample count of references to valid blocks.
system.cpu0.dcache.tags.avg_refs             1.466797                       # Average number of references to valid blocks.
system.cpu0.dcache.tags.warmup_cycle                0                       # Cycle when the warmup percentage was hit.
system.cpu0.dcache.tags.occ_blocks::cpu0.data         1024                       # Average occupied blocks per requestor
system.cpu0.dcache.tags.occ_percent::cpu0.data            1                       # Average percentage of cache occupancy
system.cpu0.dcache.tags.occ_percent::total            1                       # Average percentage of cache occupancy
system.cpu0.dcache.tags.occ_task_id_blocks::1024         1024                       # Occupied blocks per task id
system.cpu0.dcache.tags.age_task_id_blocks_1024::0          247                       # Occupied blocks per task id
system.cpu0.dcache.tags.age_task_id_blocks_1024::1          777                       # Occupied blocks per task id
system.cpu0.dcache.tags.occ_task_id_percent::1024            1                       # Percentage of cache occupancy per task id
system.cpu0.dcache.tags.tag_accesses          4972065                       # Number of tag accesses
system.cpu0.dcache.tags.data_accesses         4972065                       # Number of data accesses
system.cpu0.dcache.pwrStateResidencyTicks::UNDEFINED  15267344125                       # Cumulative time (in ticks) in various power states
system.cpu0.dcache.ReadReq_hits::cpu0.data       476585                       # number of ReadReq hits
system.cpu0.dcache.ReadReq_hits::total         476585                       # number of ReadReq hits
system.cpu0.dcache.WriteReq_hits::cpu0.data        49918                       # number of WriteReq hits
system.cpu0.dcache.WriteReq_hits::total         49918                       # number of WriteReq hits
system.cpu0.dcache.demand_hits::cpu0.data       526503                       # number of demand (read+write) hits
system.cpu0.dcache.demand_hits::total          526503                       # number of demand (read+write) hits
system.cpu0.dcache.overall_hits::cpu0.data       526503                       # number of overall hits
system.cpu0.dcache.overall_hits::total         526503                       # number of overall hits
system.cpu0.dcache.ReadReq_misses::cpu0.data       625497                       # number of ReadReq misses
system.cpu0.dcache.ReadReq_misses::total       625497                       # number of ReadReq misses
system.cpu0.dcache.WriteReq_misses::cpu0.data         1435                       # number of WriteReq misses
system.cpu0.dcache.WriteReq_misses::total         1435                       # number of WriteReq misses
system.cpu0.dcache.demand_misses::cpu0.data       626932                       # number of demand (read+write) misses
system.cpu0.dcache.demand_misses::total        626932                       # number of demand (read+write) misses
system.cpu0.dcache.overall_misses::cpu0.data       626932                       # number of overall misses
system.cpu0.dcache.overall_misses::total       626932                       # number of overall misses
system.cpu0.dcache.ReadReq_miss_latency::cpu0.data  34219106000                       # number of ReadReq miss cycles
system.cpu0.dcache.ReadReq_miss_latency::total  34219106000                       # number of ReadReq miss cycles
system.cpu0.dcache.WriteReq_miss_latency::cpu0.data     64721000                       # number of WriteReq miss cycles
system.cpu0.dcache.WriteReq_miss_latency::total     64721000                       # number of WriteReq miss cycles
system.cpu0.dcache.demand_miss_latency::cpu0.data  34283827000                       # number of demand (read+write) miss cycles
system.cpu0.dcache.demand_miss_latency::total  34283827000                       # number of demand (read+write) miss cycles
system.cpu0.dcache.overall_miss_latency::cpu0.data  34283827000                       # number of overall miss cycles
system.cpu0.dcache.overall_miss_latency::total  34283827000                       # number of overall miss cycles
system.cpu0.dcache.ReadReq_accesses::cpu0.data      1102082                       # number of ReadReq accesses(hits+misses)
system.cpu0.dcache.ReadReq_accesses::total      1102082                       # number of ReadReq accesses(hits+misses)
system.cpu0.dcache.WriteReq_accesses::cpu0.data        51353                       # number of WriteReq accesses(hits+misses)
system.cpu0.dcache.WriteReq_accesses::total        51353                       # number of WriteReq accesses(hits+misses)
system.cpu0.dcache.demand_accesses::cpu0.data      1153435                       # number of demand (read+write) accesses
system.cpu0.dcache.demand_accesses::total      1153435                       # number of demand (read+write) accesses
system.cpu0.dcache.overall_accesses::cpu0.data      1153435                       # number of overall (read+write) accesses
system.cpu0.dcache.overall_accesses::total      1153435                       # number of overall (read+write) accesses
system.cpu0.dcache.ReadReq_miss_rate::cpu0.data     0.567559                       # miss rate for ReadReq accesses
system.cpu0.dcache.ReadReq_miss_rate::total     0.567559                       # miss rate for ReadReq accesses
system.cpu0.dcache.WriteReq_miss_rate::cpu0.data     0.027944                       # miss rate for WriteReq accesses
system.cpu0.dcache.WriteReq_miss_rate::total     0.027944                       # miss rate for WriteReq accesses
system.cpu0.dcache.demand_miss_rate::cpu0.data     0.543535                       # miss rate for demand accesses
system.cpu0.dcache.demand_miss_rate::total     0.543535                       # miss rate for demand accesses
system.cpu0.dcache.overall_miss_rate::cpu0.data     0.543535                       # miss rate for overall accesses
system.cpu0.dcache.overall_miss_rate::total     0.543535                       # miss rate for overall accesses
system.cpu0.dcache.ReadReq_avg_miss_latency::cpu0.data 54707.066541                       # average ReadReq miss latency
system.cpu0.dcache.ReadReq_avg_miss_latency::total 54707.066541                       # average ReadReq miss latency
[...]
system.l2.ReadSharedReq_hits::cpu0.data        186841                       # number of ReadSharedReq hits
system.l2.ReadSharedReq_hits::total            186841                       # number of ReadSharedReq hits
system.l2.demand_hits::cpu0.data               187772                       # number of demand (read+write) hits
system.l2.demand_hits::total                   187772                       # number of demand (read+write) hits
system.l2.overall_hits::cpu0.data              187772                       # number of overall hits
system.l2.overall_hits::total                  187772                       # number of overall hits
system.l2.ReadExReq_misses::cpu0.data             494                       # number of ReadExReq misses
system.l2.ReadExReq_misses::total                 494                       # number of ReadExReq misses
system.l2.ReadSharedReq_misses::cpu0.data       170060                       # number of ReadSharedReq misses
system.l2.ReadSharedReq_misses::total          170060                       # number of ReadSharedReq misses
system.l2.demand_misses::cpu0.data             170554                       # number of demand (read+write) misses
system.l2.demand_misses::total                 170554                       # number of demand (read+write) misses
system.l2.overall_misses::cpu0.data            170554                       # number of overall misses
system.l2.overall_misses::total                170554                       # number of overall misses
system.l2.ReadExReq_miss_latency::cpu0.data     50119500                       # number of ReadExReq miss cycles
system.l2.ReadExReq_miss_latency::total      50119500                       # number of ReadExReq miss cycles
system.l2.ReadSharedReq_miss_latency::cpu0.data  16257658500                       # number of ReadSharedReq miss cycles
system.l2.ReadSharedReq_miss_latency::total  16257658500                       # number of ReadSharedReq miss cycles
system.l2.demand_miss_latency::cpu0.data  16307778000                       # number of demand (read+write) miss cycles
system.l2.demand_miss_latency::total      16307778000                       # number of demand (read+write) miss cycles
system.l2.overall_miss_latency::cpu0.data  16307778000                       # number of overall miss cycles
system.l2.overall_miss_latency::total     16307778000                       # number of overall miss cycles
system.l2.WritebackDirty_accesses::writebacks         4182                       # number of WritebackDirty accesses(hits+misses)
system.l2.WritebackDirty_accesses::total         4182                       # number of WritebackDirty accesses(hits+misses)
system.l2.ReadExReq_accesses::cpu0.data          1425                       # number of ReadExReq accesses(hits+misses)
system.l2.ReadExReq_accesses::total              1425                       # number of ReadExReq accesses(hits+misses)
system.l2.ReadSharedReq_accesses::cpu0.data       356901                       # number of ReadSharedReq accesses(hits+misses)
system.l2.ReadSharedReq_accesses::total        356901                       # number of ReadSharedReq accesses(hits+misses)
system.l2.demand_accesses::cpu0.data           358326                       # number of demand (read+write) accesses
system.l2.demand_accesses::total               358326                       # number of demand (read+write) accesses
system.l2.overall_accesses::cpu0.data          358326                       # number of overall (read+write) accesses
system.l2.overall_accesses::total              358326                       # number of overall (read+write) accesses
system.l2.ReadExReq_miss_rate::cpu0.data     0.346667                       # miss rate for ReadExReq accesses
system.l2.ReadExReq_miss_rate::total         0.346667                       # miss rate for ReadExReq accesses
system.l2.ReadSharedReq_miss_rate::cpu0.data     0.476491                       # miss rate for ReadSharedReq accesses
system.l2.ReadSharedReq_miss_rate::total     0.476491                       # miss rate for ReadSharedReq accesses
system.l2.demand_miss_rate::cpu0.data        0.475974                       # miss rate for demand accesses
system.l2.demand_miss_rate::total            0.475974                       # miss rate for demand accesses
system.l2.overall_miss_rate::cpu0.data       0.475974                       # miss rate for overall accesses
system.l2.overall_miss_rate::total           0.475974                       # miss rate for overall accesses
system.l2.ReadExReq_avg_miss_latency::cpu0.data 101456.477733                       # average ReadExReq miss latency
system.l2.ReadExReq_avg_miss_latency::total 101456.477733                       # average ReadExReq miss latency
system.l2.ReadSharedReq_avg_miss_latency::cpu0.data 95599.544278                       # average ReadSharedReq miss latency
system.l2.ReadSharedReq_avg_miss_latency::total 95599.544278                       # average ReadSharedReq miss latency
system.l2.demand_avg_miss_latency::cpu0.data 95616.508554                       # average overall miss latency
system.l2.demand_avg_miss_latency::total 95616.508554                       # average overall miss latency
system.l2.overall_avg_miss_latency::cpu0.data 95616.508554                       # average overall miss latency
system.l2.overall_avg_miss_latency::total 95616.508554                       # average overall miss latency
system.l2.blocked_cycles::no_mshrs                  0                       # number of cycles access was blocked
system.l2.blocked_cycles::no_targets                0                       # number of cycles access was blocked
system.l2.blocked::no_mshrs                         0                       # number of cycles access was blocked
system.l2.blocked::no_targets                       0                       # number of cycles access was blocked
system.l2.avg_blocked_cycles::no_mshrs            nan                       # average number of cycles each access was blocked
system.l2.avg_blocked_cycles::no_targets          nan                       # average number of cycles each access was blocked
system.l2.writebacks::writebacks                  667                       # number of writebacks
system.l2.writebacks::total                       667                       # number of writebacks
system.l2.ReadExReq_mshr_misses::cpu0.data          494                       # number of ReadExReq MSHR misses
system.l2.ReadExReq_mshr_misses::total            494                       # number of ReadExReq MSHR misses
system.l2.ReadSharedReq_mshr_misses::cpu0.data       170060                       # number of ReadSharedReq MSHR misses
system.l2.ReadSharedReq_mshr_misses::total       170060                       # number of ReadSharedReq MSHR misses
system.l2.demand_mshr_misses::cpu0.data        170554                       # number of demand (read+write) MSHR misses
system.l2.demand_mshr_misses::total            170554                       # number of demand (read+write) MSHR misses
system.l2.overall_mshr_misses::cpu0.data       170554                       # number of overall MSHR misses
system.l2.overall_mshr_misses::total           170554                       # number of overall MSHR misses
system.l2.ReadExReq_mshr_miss_latency::cpu0.data     45179500                       # number of ReadExReq MSHR miss cycles
system.l2.ReadExReq_mshr_miss_latency::total     45179500                       # number of ReadExReq MSHR miss cycles
system.l2.ReadSharedReq_mshr_miss_latency::cpu0.data  14557068500                       # number of ReadSharedReq MSHR miss cycles
system.l2.ReadSharedReq_mshr_miss_latency::total  14557068500                       # number of ReadSharedReq MSHR miss cycles
system.l2.demand_mshr_miss_latency::cpu0.data  14602248000                       # number of demand (read+write) MSHR miss cycles
system.l2.demand_mshr_miss_latency::total  14602248000                       # number of demand (read+write) MSHR miss cycles
system.l2.overall_mshr_miss_latency::cpu0.data  14602248000                       # number of overall MSHR miss cycles
system.l2.overall_mshr_miss_latency::total  14602248000                       # number of overall MSHR miss cycles
system.l2.ReadExReq_mshr_miss_rate::cpu0.data     0.346667                       # mshr miss rate for ReadExReq accesses
system.l2.ReadExReq_mshr_miss_rate::total     0.346667                       # mshr miss rate for ReadExReq accesses
system.l2.ReadSharedReq_mshr_miss_rate::cpu0.data     0.476491                       # mshr miss rate for ReadSharedReq accesses
system.l2.ReadSharedReq_mshr_miss_rate::total     0.476491                       # mshr miss rate for ReadSharedReq accesses
system.l2.demand_mshr_miss_rate::cpu0.data     0.475974                       # mshr miss rate for demand accesses
system.l2.demand_mshr_miss_rate::total       0.475974                       # mshr miss rate for demand accesses
system.l2.overall_mshr_miss_rate::cpu0.data     0.475974                       # mshr miss rate for overall accesses
system.l2.overall_mshr_miss_rate::total      0.475974                       # mshr miss rate for overall accesses
system.l2.ReadExReq_avg_mshr_miss_latency::cpu0.data 91456.477733                       # average ReadExReq mshr miss latency
system.l2.ReadExReq_avg_mshr_miss_latency::total 91456.477733                       # average ReadExReq mshr miss latency
system.l2.ReadSharedReq_avg_mshr_miss_latency::cpu0.data 85599.603081                       # average ReadSharedReq mshr miss latency
system.l2.ReadSharedReq_avg_mshr_miss_latency::total 85599.603081                       # average ReadSharedReq mshr miss latency
system.l2.demand_avg_mshr_miss_latency::cpu0.data 85616.567187                       # average overall mshr miss latency
system.l2.demand_avg_mshr_miss_latency::total 85616.567187                       # average overall mshr miss latency
system.l2.overall_avg_mshr_miss_latency::cpu0.data 85616.567187                       # average overall mshr miss latency
system.l2.overall_avg_mshr_miss_latency::total 85616.567187                       # average overall mshr miss latency
system.membus.snoop_filter.tot_requests        341106                       # Total number of requests made to the snoop filter.
system.membus.snoop_filter.hit_single_requests       170552                       # Number of requests hitting in the snoop filter with a single holder of the requested data.
system.membus.snoop_filter.hit_multi_requests            0                       # Number of requests hitting in the snoop filter with multiple (>1) holders of the requested data.
system.membus.snoop_filter.tot_snoops               0                       # Total number of snoops made to the snoop filter.
system.membus.snoop_filter.hit_single_snoops            0                       # Number of snoops hitting in the snoop filter with a single holder of the requested data.
system.membus.snoop_filter.hit_multi_snoops            0                       # Number of snoops hitting in the snoop filter with multiple (>1) holders of the requested data.
system.membus.pwrStateResidencyTicks::UNDEFINED  15267344125                       # Cumulative time (in ticks) in various power states
system.membus.trans_dist::ReadResp             170059                       # Transaction distribution
system.membus.trans_dist::WritebackDirty          667                       # Transaction distribution
system.membus.trans_dist::CleanEvict           169885                       # Transaction distribution
system.membus.trans_dist::ReadExReq               494                       # Transaction distribution
system.membus.trans_dist::ReadExResp              494                       # Transaction distribution
system.membus.trans_dist::ReadSharedReq        170060                       # Transaction distribution
system.membus.pkt_count_system.l2.mem_side::system.mem_ctrls.port       511659                       # Packet count per connected master and slave (bytes)
system.membus.pkt_count_system.l2.mem_side::total       511659                       # Packet count per connected master and slave (bytes)
system.membus.pkt_count::total                 511659                       # Packet count per connected master and slave (bytes)
system.membus.pkt_size_system.l2.mem_side::system.mem_ctrls.port     10958080                       # Cumulative packet size per connected master and slave (bytes)
system.membus.pkt_size_system.l2.mem_side::total     10958080                       # Cumulative packet size per connected master and slave (bytes)
system.membus.pkt_size::total                10958080                       # Cumulative packet size per connected master and slave (bytes)
system.membus.snoops                                0                       # Total snoops (count)
system.membus.snoopTraffic                          0                       # Total snoop traffic (bytes)
system.membus.snoop_fanout::samples            170554                       # Request fanout histogram
system.membus.snoop_fanout::mean                    0                       # Request fanout histogram
system.membus.snoop_fanout::stdev                   0                       # Request fanout histogram
system.membus.snoop_fanout::underflows              0      0.00%      0.00% # Request fanout histogram
system.membus.snoop_fanout::0                  170554    100.00%    100.00% # Request fanout histogram
system.membus.snoop_fanout::1                       0      0.00%    100.00% # Request fanout histogram
system.membus.snoop_fanout::overflows               0      0.00%    100.00% # Request fanout histogram
system.membus.snoop_fanout::min_value               0                       # Request fanout histogram
system.membus.snoop_fanout::max_value               0                       # Request fanout histogram
system.membus.snoop_fanout::total              170554                       # Request fanout histogram
system.membus.reqLayer8.occupancy           400504000                       # Layer occupancy (ticks)
system.membus.reqLayer8.utilization               2.6                       # Layer utilization (%)
system.membus.respLayer1.occupancy          926650500                       # Layer occupancy (ticks)
system.membus.respLayer1.utilization              6.1                       # Layer utilization (%)
system.tol2bus.snoop_filter.tot_requests       716651                       # Total number of requests made to the snoop filter.
system.tol2bus.snoop_filter.hit_single_requests       358325                       # Number of requests hitting in the snoop filter with a single holder of the requested data.
system.tol2bus.snoop_filter.hit_multi_requests          792                       # Number of requests hitting in the snoop filter with multiple (>1) holders of the requested data.
system.tol2bus.snoop_filter.tot_snoops              1                       # Total number of snoops made to the snoop filter.
system.tol2bus.snoop_filter.hit_single_snoops            1                       # Number of snoops hitting in the snoop filter with a single holder of the requested data.
system.tol2bus.snoop_filter.hit_multi_snoops            0                       # Number of snoops hitting in the snoop filter with multiple (>1) holders of the requested data.
system.tol2bus.pwrStateResidencyTicks::UNDEFINED  15267344125                       # Cumulative time (in ticks) in various power states
system.tol2bus.trans_dist::ReadResp            356900                       # Transaction distribution
system.tol2bus.trans_dist::WritebackDirty         4849                       # Transaction distribution
system.tol2bus.trans_dist::CleanEvict          524029                       # Transaction distribution
system.tol2bus.trans_dist::ReadExReq             1425                       # Transaction distribution
system.tol2bus.trans_dist::ReadExResp            1425                       # Transaction distribution
system.tol2bus.trans_dist::ReadSharedReq       356901                       # Transaction distribution
system.tol2bus.pkt_count_system.cpu0.dcache.mem_side::system.l2.cpu_side      1074976                       # Packet count per connected master and slave (bytes)
system.tol2bus.pkt_count::total               1074976                       # Packet count per connected master and slave (bytes)
system.tol2bus.pkt_size_system.cpu0.dcache.mem_side::system.l2.cpu_side     23200448                       # Cumulative packet size per connected master and slave (bytes)
system.tol2bus.pkt_size::total               23200448                       # Cumulative packet size per connected master and slave (bytes)
system.tol2bus.snoops                          170553                       # Total snoops (count)
system.tol2bus.snoopTraffic                     42688                       # Total snoop traffic (bytes)
system.tol2bus.snoop_fanout::samples           528879                       # Request fanout histogram
system.tol2bus.snoop_fanout::mean            0.001499                       # Request fanout histogram
system.tol2bus.snoop_fanout::stdev           0.038693                       # Request fanout histogram
system.tol2bus.snoop_fanout::underflows             0      0.00%      0.00% # Request fanout histogram
system.tol2bus.snoop_fanout::0                 528086     99.85%     99.85% # Request fanout histogram
system.tol2bus.snoop_fanout::1                    793      0.15%    100.00% # Request fanout histogram
system.tol2bus.snoop_fanout::2                      0      0.00%    100.00% # Request fanout histogram
system.tol2bus.snoop_fanout::3                      0      0.00%    100.00% # Request fanout histogram
system.tol2bus.snoop_fanout::4                      0      0.00%    100.00% # Request fanout histogram
system.tol2bus.snoop_fanout::5                      0      0.00%    100.00% # Request fanout histogram
system.tol2bus.snoop_fanout::6                      0      0.00%    100.00% # Request fanout histogram
system.tol2bus.snoop_fanout::7                      0      0.00%    100.00% # Request fanout histogram
system.tol2bus.snoop_fanout::8                      0      0.00%    100.00% # Request fanout histogram
system.tol2bus.snoop_fanout::9                      0      0.00%    100.00% # Request fanout histogram
system.tol2bus.snoop_fanout::10                     0      0.00%    100.00% # Request fanout histogram
system.tol2bus.snoop_fanout::11                     0      0.00%    100.00% # Request fanout histogram
system.tol2bus.snoop_fanout::12                     0      0.00%    100.00% # Request fanout histogram
system.tol2bus.snoop_fanout::13                     0      0.00%    100.00% # Request fanout histogram
system.tol2bus.snoop_fanout::14                     0      0.00%    100.00% # Request fanout histogram
system.tol2bus.snoop_fanout::15                     0      0.00%    100.00% # Request fanout histogram
system.tol2bus.snoop_fanout::16                     0      0.00%    100.00% # Request fanout histogram
system.tol2bus.snoop_fanout::overflows              0      0.00%    100.00% # Request fanout histogram
system.tol2bus.snoop_fanout::min_value              0                       # Request fanout histogram
system.tol2bus.snoop_fanout::max_value              1                       # Request fanout histogram
system.tol2bus.snoop_fanout::total             528879                       # Request fanout histogram
system.tol2bus.reqLayer0.occupancy          362507500                       # Layer occupancy (ticks)
system.tol2bus.reqLayer0.utilization              2.4                       # Layer utilization (%)
system.tol2bus.respLayer1.occupancy         537487500                       # Layer occupancy (ticks)
system.tol2bus.respLayer1.utilization             3.5                       # Layer utilization (%)

---------- End Simulation Statistics   ----------
