
---------- Begin Simulation Statistics ----------
sim_seconds                                  0.015267                       # Number of seconds simulated
sim_ticks                                 15267344125                       # Number of ticks simulated
final_tick                               3450419772250                       # Number of ticks from beginning of simulation (restored from checkpoints and never reset)
sim_freq                                 1000000000000                       # Frequency of simulated ticks
host_inst_rate                               97807505                       # Simulator instruction rate (inst/s)
host_op_rate                                181407148                       # Simulator op (including micro ops) rate (op/s)
host_tick_rate                              264413510                       # Simulator tick rate (ticks/s)
host_mem_usage                                2332536                       # Number of bytes of host memory used
host_seconds                                    57.74                       # Real time elapsed on the host
sim_insts                                  5647443635                       # Number of instructions simulated
sim_ops                                   10474521370                       # Number of ops (including micro ops) simulated
system.voltage_domain.voltage                       1                       # Voltage in Volts
system.clk_domain.clock                          1000                       # Clock period in ticks
system.mem_ctrls.pwrStateResidencyTicks::UNDEFINED  15267344125                       # Cumulative time (in ticks) in various power states
system.mem_ctrls.bytes_read::cpu0.inst            128                       # Number of bytes read from this memory
system.mem_ctrls.bytes_read::cpu0.data       10682624                       # Number of bytes read from this memory
system.mem_ctrls.bytes_read::total           10682752                       # Number of bytes read from this memory
system.mem_ctrls.bytes_inst_read::cpu0.inst          128                       # Number of instructions bytes read from this memory
system.mem_ctrls.bytes_inst_read::total           128                       # Number of instructions bytes read from this memory
system.mem_ctrls.bytes_written::writebacks        41920                       # Number of bytes written to this memory
system.mem_ctrls.bytes_written::total           41920                       # Number of bytes written to this memory
system.mem_ctrls.num_reads::cpu0.inst               2                       # Number of read requests responded to by this memory
system.mem_ctrls.num_reads::cpu0.data          166916                       # Number of read requests responded to by this memory
system.mem_ctrls.num_reads::total              166918                       # Number of read requests responded to by this memory
system.mem_ctrls.num_writes::writebacks           655                       # Number of write requests responded to by this memory
system.mem_ctrls.num_writes::total                655                       # Number of write requests responded to by this memory
system.mem_ctrls.bw_read::cpu0.inst              8384                       # Total read bandwidth from this memory (bytes/s)
system.mem_ctrls.bw_read::cpu0.data         699704147                       # Total read bandwidth from this memory (bytes/s)
system.mem_ctrls.bw_read::total             699712531                       # Total read bandwidth from this memory (bytes/s)
system.mem_ctrls.bw_inst_read::cpu0.inst         8384                       # Instruction read bandwidth from this memory (bytes/s)
system.mem_ctrls.bw_inst_read::total             8384                       # Instruction read bandwidth from this memory (bytes/s)
system.mem_ctrls.bw_write::writebacks         2745730                       # Write bandwidth from this memory (bytes/s)
system.mem_ctrls.bw_write::total              2745730                       # Write bandwidth from this memory (bytes/s)
system.mem_ctrls.bw_total::writebacks         2745730                       # Total bandwidth to/from this memory (bytes/s)
system.mem_ctrls.bw_total::cpu0.inst             8384                       # Total bandwidth to/from this memory (bytes/s)
system.mem_ctrls.bw_total::cpu0.data        699704147                       # Total bandwidth to/from this memory (bytes/s)
system.mem_ctrls.bw_total::total            702458261                       # Total bandwidth to/from this memory (bytes/s)
system.mem_ctrls.readReqs                      166919                       # Number of read requests accepted
system.mem_ctrls.writeReqs                        655                       # Number of write requests accepted
system.mem_ctrls.readBursts                    166919                       # Number of DRAM read bursts, including those serviced by the write queue
system.mem_ctrls.writeBursts                      655                       # Number of DRAM write bursts, including those merged in the write queue
system.mem_ctrls.bytesReadDRAM               10677312                       # Total number of bytes read from DRAM
system.mem_ctrls.bytesReadWrQ                    5504                       # Total number of bytes read from write queue
system.mem_ctrls.bytesWritten                   42432                       # Total number of bytes written to DRAM
system.mem_ctrls.bytesReadSys                10682816                       # Total read bytes from the system interface side
system.mem_ctrls.bytesWrittenSys                41920                       # Total written bytes from the system interface side
system.mem_ctrls.servicedByWrQ                     86                       # Number of DRAM read bursts serviced by the write queue
system.mem_ctrls.mergedWrBursts                     0                       # Number of DRAM write bursts merged with an existing one
system.mem_ctrls.neitherReadNorWriteReqs            0                       # Number of requests that are neither read nor write
system.mem_ctrls.perBankRdBursts::0             10206                       # Per bank write bursts
system.mem_ctrls.perBankRdBursts::1             10139                       # Per bank write bursts
system.mem_ctrls.perBankRdBursts::2             10127                       # Per bank write bursts
system.mem_ctrls.perBankRdBursts::3             10775                       # Per bank write bursts
system.mem_ctrls.perBankRdBursts::4             10918                       # Per bank write bursts
system.mem_ctrls.perBankRdBursts::5             10589                       # Per bank write bursts
system.mem_ctrls.perBankRdBursts::6             10907                       # Per bank write bursts
system.mem_ctrls.perBankRdBursts::7             10537                       # Per bank write bursts
system.mem_ctrls.perBankRdBursts::8             10421                       # Per bank write bursts
system.mem_ctrls.perBankRdBursts::9             10222                       # Per bank write bursts
system.mem_ctrls.perBankRdBursts::10            10169                       # Per bank write bursts
system.mem_ctrls.perBankRdBursts::11            10402                       # Per bank write bursts
system.mem_ctrls.perBankRdBursts::12            10359                       # Per bank write bursts
system.mem_ctrls.perBankRdBursts::13            10267                       # Per bank write bursts
system.mem_ctrls.perBankRdBursts::14            10426                       # Per bank write bursts
system.mem_ctrls.perBankRdBursts::15            10369                       # Per bank write bursts
system.mem_ctrls.perBankWrBursts::0               150                       # Per bank write bursts
system.mem_ctrls.perBankWrBursts::1               119                       # Per bank write bursts
system.mem_ctrls.perBankWrBursts::2               106                       # Per bank write bursts
system.mem_ctrls.perBankWrBursts::3               100                       # Per bank write bursts
system.mem_ctrls.perBankWrBursts::4                12                       # Per bank write bursts
system.mem_ctrls.perBankWrBursts::5                 0                       # Per bank write bursts
system.mem_ctrls.perBankWrBursts::6                 0                       # Per bank write bursts
system.mem_ctrls.perBankWrBursts::7                 0                       # Per bank write bursts
system.mem_ctrls.perBankWrBursts::8                 0                       # Per bank write bursts
system.mem_ctrls.perBankWrBursts::9                 0                       # Per bank write bursts
system.mem_ctrls.perBankWrBursts::10                0                       # Per bank write bursts
system.mem_ctrls.perBankWrBursts::11                0                       # Per bank write bursts
system.mem_ctrls.perBankWrBursts::12                0                       # Per bank write bursts
system.mem_ctrls.perBankWrBursts::13                2                       # Per bank write bursts
system.mem_ctrls.perBankWrBursts::14               46                       # Per bank write bursts
system.mem_ctrls.perBankWrBursts::15              128                       # Per bank write bursts
system.mem_ctrls.numRdRetry                         0                       # Number of times read queue was full causing retry
system.mem_ctrls.numWrRetry                         0                       # Number of times write queue was full causing retry
system.mem_ctrls.totGap                   15267381000                       # Total gap between requests
system.mem_ctrls.readPktSize::0                     0                       # Read request sizes (log2)
system.mem_ctrls.readPktSize::1                     0                       # Read request sizes (log2)
system.mem_ctrls.readPktSize::2                     0                       # Read request sizes (log2)
system.mem_ctrls.readPktSize::3                     0                       # Read request sizes (log2)
system.mem_ctrls.readPktSize::4                     0                       # Read request sizes (log2)
system.mem_ctrls.readPktSize::5                     0                       # Read request sizes (log2)
system.mem_ctrls.readPktSize::6                166919                       # Read request sizes (log2)
system.mem_ctrls.writePktSize::0                    0                       # Write request sizes (log2)
system.mem_ctrls.writePktSize::1                    0                       # Write request sizes (log2)
system.mem_ctrls.writePktSize::2                    0                       # Write request sizes (log2)
system.mem_ctrls.writePktSize::3                    0                       # Write request sizes (log2)
system.mem_ctrls.writePktSize::4                    0                       # Write request sizes (log2)
system.mem_ctrls.writePktSize::5                    0                       # Write request sizes (log2)
system.mem_ctrls.writePktSize::6                  655                       # Write request sizes (log2)
system.mem_ctrls.rdQLenPdf::0                  128652                       # What read queue length does an incoming req see
system.mem_ctrls.rdQLenPdf::1                   35521                       # What read queue length does an incoming req see
system.mem_ctrls.rdQLenPdf::2                    2570                       # What read queue length does an incoming req see
system.mem_ctrls.rdQLenPdf::3                      90                       # What read queue length does an incoming req see
system.mem_ctrls.rdQLenPdf::4                       0                       # What read queue length does an incoming req see
system.mem_ctrls.rdQLenPdf::5                       0                       # What read queue length does an incoming req see
system.mem_ctrls.rdQLenPdf::6                       0                       # What read queue length does an incoming req see
system.mem_ctrls.rdQLenPdf::7                       0                       # What read queue length does an incoming req see
system.mem_ctrls.rdQLenPdf::8                       0                       # What read queue length does an incoming req see
system.mem_ctrls.rdQLenPdf::9                       0                       # What read queue length does an incoming req see
system.mem_ctrls.rdQLenPdf::10                      0                       # What read queue length does an incoming req see
system.mem_ctrls.rdQLenPdf::11                      0                       # What read queue length does an incoming req see
system.mem_ctrls.rdQLenPdf::12                      0                       # What read queue length does an incoming req see
system.mem_ctrls.rdQLenPdf::13                      0                       # What read queue length does an incoming req see
system.mem_ctrls.rdQLenPdf::14                      0                       # What read queue length does an incoming req see
system.mem_ctrls.rdQLenPdf::15                      0                       # What read queue length does an incoming req see
system.mem_ctrls.rdQLenPdf::16                      0                       # What read queue length does an incoming req see
system.mem_ctrls.rdQLenPdf::17                      0                       # What read queue length does an incoming req see
system.mem_ctrls.rdQLenPdf::18                      0                       # What read queue length does an incoming req see
system.mem_ctrls.rdQLenPdf::19                      0                       # What read queue length does an incoming req see
system.mem_ctrls.rdQLenPdf::20                      0                       # What read queue length does an incoming req see
system.mem_ctrls.rdQLenPdf::21                      0                       # What read queue length does an incoming req see
system.mem_ctrls.rdQLenPdf::22                      0                       # What read queue length does an incoming req see
system.mem_ctrls.rdQLenPdf::23                      0                       # What read queue length does an incoming req see
system.mem_ctrls.rdQLenPdf::24                      0                       # What read queue length does an incoming req see
system.mem_ctrls.rdQLenPdf::25                      0                       # What read queue length does an incoming req see
system.mem_ctrls.rdQLenPdf::26                      0                       # What read queue length does an incoming req see
system.mem_ctrls.rdQLenPdf::27                      0                       # What read queue length does an incoming req see
system.mem_ctrls.rdQLenPdf::28                      0                       # What read queue length does an incoming req see
system.mem_ctrls.rdQLenPdf::29                      0                       # What read queue length does an incoming req see
system.mem_ctrls.rdQLenPdf::30                      0                       # What read queue length does an incoming req see
system.mem_ctrls.rdQLenPdf::31                      0                       # What read queue length does an incoming req see
system.mem_ctrls.wrQLenPdf::0                       0                       # What write queue length does an incoming req see
system.mem_ctrls.wrQLenPdf::1                       0                       # What write queue length does an incoming req see
system.mem_ctrls.wrQLenPdf::2                       0                       # What write queue length does an incoming req see
system.mem_ctrls.wrQLenPdf::3                       0                       # What write queue length does an incoming req see
system.mem_ctrls.wrQLenPdf::4                       0                       # What write queue length does an incoming req see
system.mem_ctrls.wrQLenPdf::5                       0                       # What write queue length does an incoming req see
system.mem_ctrls.wrQLenPdf::6                       0                       # What write queue length does an incoming req see
system.mem_ctrls.wrQLenPdf::7                       0                       # What write queue length does an incoming req see
system.mem_ctrls.wrQLenPdf::8                       0                       # What write queue length does an incoming req see
system.mem_ctrls.wrQLenPdf::9                       0                       # What write queue length does an incoming req see
system.mem_ctrls.wrQLenPdf::10                      0                       # What write queue length does an incoming req see
system.mem_ctrls.wrQLenPdf::11                      0                       # What write queue length does an incoming req see
system.mem_ctrls.wrQLenPdf::12                      0                       # What write queue length does an incoming req see
system.mem_ctrls.wrQLenPdf::13                      0                       # What write queue length does an incoming req see
system.mem_ctrls.wrQLenPdf::14                      0                       # What write queue length does an incoming req see
system.mem_ctrls.wrQLenPdf::15                      3                       # What write queue length does an incoming req see
system.mem_ctrls.wrQLenPdf::16                      4                       # What write queue length does an incoming req see
system.mem_ctrls.wrQLenPdf::17                     41                       # What write queue length does an incoming req see
system.mem_ctrls.wrQLenPdf::18                     41                       # What write queue length does an incoming req see
system.mem_ctrls.wrQLenPdf::19                     40                       # What write queue length does an incoming req see
system.mem_ctrls.wrQLenPdf::20                     40                       # What write queue length does an incoming req see
system.mem_ctrls.wrQLenPdf::21                     40                       # What write queue length does an incoming req see
system.mem_ctrls.wrQLenPdf::22                     40                       # What write queue length does an incoming req see
system.mem_ctrls.wrQLenPdf::23                     40                       # What write queue length does an incoming req see
system.mem_ctrls.wrQLenPdf::24                     40                       # What write queue length does an incoming req see
system.mem_ctrls.wrQLenPdf::25                     40                       # What write queue length does an incoming req see
system.mem_ctrls.wrQLenPdf::26                     40                       # What write queue length does an incoming req see
system.mem_ctrls.wrQLenPdf::27                     41                       # What write queue length does an incoming req see
system.mem_ctrls.wrQLenPdf::28                     41                       # What write queue length does an incoming req see
system.mem_ctrls.wrQLenPdf::29                     41                       # What write queue length does an incoming req see
system.mem_ctrls.wrQLenPdf::30                     41                       # What write queue length does an incoming req see
system.mem_ctrls.wrQLenPdf::31                     41                       # What write queue length does an incoming req see
system.mem_ctrls.wrQLenPdf::32                     41                       # What write queue length does an incoming req see
system.mem_ctrls.wrQLenPdf::33                      0                       # What write queue length does an incoming req see
system.mem_ctrls.wrQLenPdf::34                      0                       # What write queue length does an incoming req see
system.mem_ctrls.wrQLenPdf::35                      0                       # What write queue length does an incoming req see
system.mem_ctrls.wrQLenPdf::36                      0                       # What write queue length does an incoming req see
system.mem_ctrls.wrQLenPdf::37                      0                       # What write queue length does an incoming req see
system.mem_ctrls.wrQLenPdf::38                      0                       # What write queue length does an incoming req see
system.mem_ctrls.wrQLenPdf::39                      0                       # What write queue length does an incoming req see
system.mem_ctrls.wrQLenPdf::40                      0                       # What write queue length does an incoming req see
system.mem_ctrls.wrQLenPdf::41                      0                       # What write queue length does an incoming req see
system.mem_ctrls.wrQLenPdf::42                      0                       # What write queue length does an incoming req see
system.mem_ctrls.wrQLenPdf::43                      0                       # What write queue length does an incoming req see
system.mem_ctrls.wrQLenPdf::44                      0                       # What write queue length does an incoming req see
system.mem_ctrls.wrQLenPdf::45                      0                       # What write queue length does an incoming req see
system.mem_ctrls.wrQLenPdf::46                      0                       # What write queue length does an incoming req see
system.mem_ctrls.wrQLenPdf::47                      0                       # What write queue length does an incoming req see
system.mem_ctrls.wrQLenPdf::48                      0                       # What write queue length does an incoming req see
system.mem_ctrls.wrQLenPdf::49                      0                       # What write queue length does an incoming req see
system.mem_ctrls.wrQLenPdf::50                      0                       # What write queue length does an incoming req see
system.mem_ctrls.wrQLenPdf::51                      0                       # What write queue length does an incoming req see
system.mem_ctrls.wrQLenPdf::52                      0                       # What write queue length does an incoming req see
system.mem_ctrls.wrQLenPdf::53                      0                       # What write queue length does an incoming req see
system.mem_ctrls.wrQLenPdf::54                      0                       # What write queue length does an incoming req see
system.mem_ctrls.wrQLenPdf::55                      0                       # What write queue length does an incoming req see
system.mem_ctrls.wrQLenPdf::56                      0                       # What write queue length does an incoming req see
system.mem_ctrls.wrQLenPdf::57                      0                       # What write queue length does an incoming req see
system.mem_ctrls.wrQLenPdf::58                      0                       # What write queue length does an incoming req see
system.mem_ctrls.wrQLenPdf::59                      0                       # What write queue length does an incoming req see
system.mem_ctrls.wrQLenPdf::60                      0                       # What write queue length does an incoming req see
system.mem_ctrls.wrQLenPdf::61                      0                       # What write queue length does an incoming req see
system.mem_ctrls.wrQLenPdf::62                      0                       # What write queue length does an incoming req see
system.mem_ctrls.wrQLenPdf::63                      0                       # What write queue length does an incoming req see
system.mem_ctrls.bytesPerActivate::samples        93355                       # Bytes accessed per row activation
system.mem_ctrls.bytesPerActivate::mean    114.830486                       # Bytes accessed per row activation
system.mem_ctrls.bytesPerActivate::gmean    99.558128                       # Bytes accessed per row activation
system.mem_ctrls.bytesPerActivate::stdev    69.250952                       # Bytes accessed per row activation
system.mem_ctrls.bytesPerActivate::0-127        48795     52.27%     52.27% # Bytes accessed per row activation
system.mem_ctrls.bytesPerActivate::128-255        37364     40.02%     92.29% # Bytes accessed per row activation
system.mem_ctrls.bytesPerActivate::256-383         6342      6.79%     99.09% # Bytes accessed per row activation
system.mem_ctrls.bytesPerActivate::384-511          743      0.80%     99.88% # Bytes accessed per row activation
system.mem_ctrls.bytesPerActivate::512-639           81      0.09%     99.97% # Bytes accessed per row activation
system.mem_ctrls.bytesPerActivate::640-767           18      0.02%     99.99% # Bytes accessed per row activation
system.mem_ctrls.bytesPerActivate::768-895            6      0.01%     99.99% # Bytes accessed per row activation
system.mem_ctrls.bytesPerActivate::896-1023            4      0.00%    100.00% # Bytes accessed per row activation
system.mem_ctrls.bytesPerActivate::1024-1151            2      0.00%    100.00% # Bytes accessed per row activation
system.mem_ctrls.bytesPerActivate::total        93355                       # Bytes accessed per row activation
system.mem_ctrls.rdPerTurnAround::samples           41                       # Reads before turning the bus around for writes
system.mem_ctrls.rdPerTurnAround::mean    4122.439024                       # Reads before turning the bus around for writes
system.mem_ctrls.rdPerTurnAround::gmean   3970.060707                       # Reads before turning the bus around for writes
system.mem_ctrls.rdPerTurnAround::stdev   1097.635528                       # Reads before turning the bus around for writes
system.mem_ctrls.rdPerTurnAround::2048-2303            3      7.32%      7.32% # Reads before turning the bus around for writes
system.mem_ctrls.rdPerTurnAround::2304-2559            2      4.88%     12.20% # Reads before turning the bus around for writes
system.mem_ctrls.rdPerTurnAround::2560-2815            1      2.44%     14.63% # Reads before turning the bus around for writes
system.mem_ctrls.rdPerTurnAround::2816-3071            1      2.44%     17.07% # Reads before turning the bus around for writes
system.mem_ctrls.rdPerTurnAround::3072-3327            4      9.76%     26.83% # Reads before turning the bus around for writes
system.mem_ctrls.rdPerTurnAround::3328-3583            1      2.44%     29.27% # Reads before turning the bus around for writes
system.mem_ctrls.rdPerTurnAround::3584-3839            4      9.76%     39.02% # Reads before turning the bus around for writes
system.mem_ctrls.rdPerTurnAround::3840-4095            4      9.76%     48.78% # Reads before turning the bus around for writes
system.mem_ctrls.rdPerTurnAround::4096-4351            4      9.76%     58.54% # Reads before turning the bus around for writes
system.mem_ctrls.rdPerTurnAround::4352-4607            2      4.88%     63.41% # Reads before turning the bus around for writes
system.mem_ctrls.rdPerTurnAround::4608-4863            6     14.63%     78.05% # Reads before turning the bus around for writes
system.mem_ctrls.rdPerTurnAround::4864-5119            2      4.88%     82.93% # Reads before turning the bus around for writes
system.mem_ctrls.rdPerTurnAround::5120-5375            3      7.32%     90.24% # Reads before turning the bus around for writes
system.mem_ctrls.rdPerTurnAround::5376-5631            1      2.44%     92.68% # Reads before turning the bus around for writes
system.mem_ctrls.rdPerTurnAround::5888-6143            1      2.44%     95.12% # Reads before turning the bus around for writes
system.mem_ctrls.rdPerTurnAround::6144-6399            1      2.44%     97.56% # Reads before turning the bus around for writes
system.mem_ctrls.rdPerTurnAround::6400-6655            1      2.44%    100.00% # Reads before turning the bus around for writes
system.mem_ctrls.rdPerTurnAround::total            41                       # Reads before turning the bus around for writes
system.mem_ctrls.wrPerTurnAround::samples           41                       # Writes before turning the bus around for reads
system.mem_ctrls.wrPerTurnAround::mean      16.170732                       # Writes before turning the bus around for reads
system.mem_ctrls.wrPerTurnAround::gmean     16.162369                       # Writes before turning the bus around for reads
system.mem_ctrls.wrPerTurnAround::stdev      0.543251                       # Writes before turning the bus around for reads
system.mem_ctrls.wrPerTurnAround::16               37     90.24%     90.24% # Writes before turning the bus around for reads
system.mem_ctrls.wrPerTurnAround::17                1      2.44%     92.68% # Writes before turning the bus around for reads
system.mem_ctrls.wrPerTurnAround::18                3      7.32%    100.00% # Writes before turning the bus around for reads
system.mem_ctrls.wrPerTurnAround::total            41                       # Writes before turning the bus around for reads
system.mem_ctrls.totQLat                   4257336250                       # Total ticks spent queuing
system.mem_ctrls.totMemAccLat              7385455000                       # Total ticks spent from burst creation until serviced by the DRAM
system.mem_ctrls.totBusLat                  834165000                       # Total ticks spent in databus transfers
system.mem_ctrls.avgQLat                     25518.55                       # Average queueing delay per DRAM burst
system.mem_ctrls.avgBusLat                    5000.00                       # Average bus latency per DRAM burst
system.mem_ctrls.avgMemAccLat                44268.55                       # Average memory access latency per DRAM burst
system.mem_ctrls.avgRdBW                       699.36                       # Average DRAM read bandwidth in MiByte/s
system.mem_ctrls.avgWrBW                         2.78                       # Average achieved write bandwidth in MiByte/s
system.mem_ctrls.avgRdBWSys                    699.72                       # Average system read bandwidth in MiByte/s
system.mem_ctrls.avgWrBWSys                      2.75                       # Average system write bandwidth in MiByte/s
system.mem_ctrls.peakBW                      12800.00                       # Theoretical peak bandwidth in MiByte/s
system.mem_ctrls.busUtil                         5.49                       # Data bus utilization in percentage
system.mem_ctrls.busUtilRead                     5.46                       # Data bus utilization in percentage for reads
system.mem_ctrls.busUtilWrite                    0.02                       # Data bus utilization in percentage for writes
system.mem_ctrls.avgRdQLen                       1.27                       # Average read queue length when enqueuing
system.mem_ctrls.avgWrQLen                      25.34                       # Average write queue length when enqueuing
system.mem_ctrls.readRowHits                    73597                       # Number of row buffer hits during reads
system.mem_ctrls.writeRowHits                     542                       # Number of row buffer hits during writes
system.mem_ctrls.readRowHitRate                 44.11                       # Row buffer hit rate for reads
system.mem_ctrls.writeRowHitRate                82.75                       # Row buffer hit rate for writes
system.mem_ctrls.avgGap                      91108.29                       # Average gap between requests
system.mem_ctrls.pageHitRate                    44.27                       # Row buffer hit rate, read and write combined
system.mem_ctrls_0.actEnergy                336786660                       # Energy for activate commands per rank (pJ)
system.mem_ctrls_0.preEnergy                178998765                       # Energy for precharge commands per rank (pJ)
system.mem_ctrls_0.readEnergy               601166580                       # Energy for read commands per rank (pJ)
system.mem_ctrls_0.writeEnergy                2542140                       # Energy for write commands per rank (pJ)
system.mem_ctrls_0.refreshEnergy         1205309040.000000                       # Energy for refresh commands per rank (pJ)
system.mem_ctrls_0.actBackEnergy           1501871340                       # Energy for active background per rank (pJ)
system.mem_ctrls_0.preBackEnergy             24681120                       # Energy for precharge background per rank (pJ)
system.mem_ctrls_0.actPowerDownEnergy      5264891070                       # Energy for active power-down per rank (pJ)
system.mem_ctrls_0.prePowerDownEnergy       139496640                       # Energy for precharge power-down per rank (pJ)
system.mem_ctrls_0.selfRefreshEnergy     649740.000000                       # Energy for self refresh per rank (pJ)
system.mem_ctrls_0.totalEnergy             9256393095                       # Total energy per rank (pJ)
system.mem_ctrls_0.averagePower            606.287054                       # Core power per rank (mW)
system.mem_ctrls_0.totalIdleTime          11909728625                       # Total Idle time Per DRAM Rank
system.mem_ctrls_0.memoryStateTime::IDLE      9978000                       # Time in different power states
system.mem_ctrls_0.memoryStateTime::REF     509866000                       # Time in different power states
system.mem_ctrls_0.memoryStateTime::SREF       406250                       # Time in different power states
system.mem_ctrls_0.memoryStateTime::PRE_PDN    363527250                       # Time in different power states
system.mem_ctrls_0.memoryStateTime::ACT    2837771500                       # Time in different power states
system.mem_ctrls_0.memoryStateTime::ACT_PDN  11545795125                       # Time in different power states
system.mem_ctrls_1.actEnergy                329775180                       # Energy for activate commands per rank (pJ)
system.mem_ctrls_1.preEnergy                175283460                       # Energy for precharge commands per rank (pJ)
system.mem_ctrls_1.readEnergy               590013900                       # Energy for read commands per rank (pJ)
system.mem_ctrls_1.writeEnergy                 918720                       # Energy for write commands per rank (pJ)
system.mem_ctrls_1.refreshEnergy         1206538320.000000                       # Energy for refresh commands per rank (pJ)
system.mem_ctrls_1.actBackEnergy           1470914640                       # Energy for active background per rank (pJ)
system.mem_ctrls_1.preBackEnergy             24850080                       # Energy for precharge background per rank (pJ)
system.mem_ctrls_1.actPowerDownEnergy      5282013300                       # Energy for active power-down per rank (pJ)
system.mem_ctrls_1.prePowerDownEnergy       150644640                       # Energy for precharge power-down per rank (pJ)
system.mem_ctrls_1.selfRefreshEnergy     1410180.000000                       # Energy for self refresh per rank (pJ)
system.mem_ctrls_1.totalEnergy             9232465740                       # Total energy per rank (pJ)
system.mem_ctrls_1.averagePower            604.719830                       # Core power per rank (mW)
system.mem_ctrls_1.totalIdleTime          11976690625                       # Total Idle time Per DRAM Rank
system.mem_ctrls_1.memoryStateTime::IDLE     10305750                       # Time in different power states
system.mem_ctrls_1.memoryStateTime::REF     510392000                       # Time in different power states
system.mem_ctrls_1.memoryStateTime::SREF      1045750                       # Time in different power states
system.mem_ctrls_1.memoryStateTime::PRE_PDN    392476750                       # Time in different power states
system.mem_ctrls_1.memoryStateTime::ACT    2769452250                       # Time in different power states
system.mem_ctrls_1.memoryStateTime::ACT_PDN  11583671625                       # Time in different power states
system.pwrStateResidencyTicks::UNDEFINED  15267344125                       # Cumulative time (in ticks) in various power states
system.cpu0.branchPred.lookups                2418867                       # Number of BP lookups
system.cpu0.branchPred.condPredicted          2418867                       # Number of conditional branches predicted
system.cpu0.branchPred.condIncorrect           108207                       # Number of conditional branches incorrect
system.cpu0.branchPred.BTBLookups             1894470                       # Number of BTB lookups
system.cpu0.branchPred.BTBHits                      0                       # Number of BTB hits
system.cpu0.branchPred.BTBCorrect                   0                       # Number of correct BTB predictions (this stat may not work properly.
system.cpu0.branchPred.BTBHitPct             0.000000                       # BTB Hit Percentage
system.cpu0.branchPred.usedRAS                  77214                       # Number of times the RAS was used to get a target.
system.cpu0.branchPred.RASInCorrect             10706                       # Number of incorrect RAS predictions.
system.cpu0.branchPred.indirectLookups        1894470                       # Number of indirect predictor lookups.
system.cpu0.branchPred.indirectHits           1015037                       # Number of indirect target hits.
system.cpu0.branchPred.indirectMisses          879433                       # Number of indirect misses.
system.cpu0.branchPredindirectMispredicted        39416                       # Number of mispredicted indirect branches.
system.cpu_voltage_domain.voltage                   1                       # Voltage in Volts
system.cpu_clk_domain.clock                       500                       # Clock period in ticks
system.cpu0.dtb.walker.pwrStateResidencyTicks::UNDEFINED  15267344125                       # Cumulative time (in ticks) in various power states
system.cpu0.dtb.rdAccesses                    1166640                       # TLB accesses on read requests
system.cpu0.dtb.wrAccesses                      90996                       # TLB accesses on write requests
system.cpu0.dtb.rdMisses                       231629                       # TLB misses on read requests
system.cpu0.dtb.wrMisses                         1666                       # TLB misses on write requests
system.cpu0.apic_clk_domain.clock                8000                       # Clock period in ticks
system.cpu0.interrupts.pwrStateResidencyTicks::UNDEFINED  15267344125                       # Cumulative time (in ticks) in various power states
system.cpu0.itb.walker.pwrStateResidencyTicks::UNDEFINED  15267344125                       # Cumulative time (in ticks) in various power states
system.cpu0.itb.rdAccesses                          0                       # TLB accesses on read requests
system.cpu0.itb.wrAccesses                    1993689                       # TLB accesses on write requests
system.cpu0.itb.rdMisses                            0                       # TLB misses on read requests
system.cpu0.itb.wrMisses                         7411                       # TLB misses on write requests
system.cpu0.workload.numSyscalls                    0                       # Number of system calls
system.cpu0.pwrStateResidencyTicks::ON    15267344125                       # Cumulative time (in ticks) in various power states
system.cpu0.numCycles                        30534688                       # number of cpu cycles simulated
system.cpu0.numWorkItemsStarted                     0                       # number of work items this cpu started
system.cpu0.numWorkItemsCompleted                   0                       # number of work items this cpu completed
system.cpu0.fetch.icacheStallCycles           2042358                       # Number of cycles fetch is stalled on an Icache miss
system.cpu0.fetch.Insts                       7128610                       # Number of instructions fetch has processed
system.cpu0.fetch.Branches                    2418867                       # Number of branches that fetch encountered
system.cpu0.fetch.predictedBranches           1092251                       # Number of branches that fetch has predicted taken
system.cpu0.fetch.Cycles                     28262993                       # Number of cycles fetch has run and was not squashing or blocked
system.cpu0.fetch.SquashCycles                 221162                       # Number of cycles fetch has spent squashing
system.cpu0.fetch.TlbCycles                      4030                       # Number of cycles fetch has spent waiting for tlb
system.cpu0.fetch.MiscStallCycles                1684                       # Number of cycles fetch has spent waiting on interrupts, or bad addresses, or out of MSHRs
system.cpu0.fetch.PendingTrapStallCycles        62229                       # Number of stall cycles due to pending traps
system.cpu0.fetch.CacheLines                  1986278                       # Number of cache lines fetched
system.cpu0.fetch.IcacheSquashes                16549                       # Number of outstanding Icache misses that were squashed
system.cpu0.fetch.ItlbSquashes                     13                       # Number of outstanding ITLB misses that were squashed
system.cpu0.fetch.rateDist::samples          30483875                       # Number of instructions fetched each cycle (Total)
system.cpu0.fetch.rateDist::mean             0.470776                       # Number of instructions fetched each cycle (Total)
system.cpu0.fetch.rateDist::stdev            1.711982                       # Number of instructions fetched each cycle (Total)
system.cpu0.fetch.rateDist::underflows              0      0.00%      0.00% # Number of instructions fetched each cycle (Total)
system.cpu0.fetch.rateDist::0                27740763     91.00%     91.00% # Number of instructions fetched each cycle (Total)
system.cpu0.fetch.rateDist::1                   37967      0.12%     91.13% # Number of instructions fetched each cycle (Total)
system.cpu0.fetch.rateDist::2                  962917      3.16%     94.28% # Number of instructions fetched each cycle (Total)
system.cpu0.fetch.rateDist::3                   43013      0.14%     94.43% # Number of instructions fetched each cycle (Total)
system.cpu0.fetch.rateDist::4                  189120      0.62%     95.05% # Number of instructions fetched each cycle (Total)
system.cpu0.fetch.rateDist::5                   98569      0.32%     95.37% # Number of instructions fetched each cycle (Total)
system.cpu0.fetch.rateDist::6                  122794      0.40%     95.77% # Number of instructions fetched each cycle (Total)
system.cpu0.fetch.rateDist::7                   37700      0.12%     95.90% # Number of instructions fetched each cycle (Total)
system.cpu0.fetch.rateDist::8                 1251032      4.10%    100.00% # Number of instructions fetched each cycle (Total)
system.cpu0.fetch.rateDist::overflows               0      0.00%    100.00% # Number of instructions fetched each cycle (Total)
system.cpu0.fetch.rateDist::min_value               0                       # Number of instructions fetched each cycle (Total)
system.cpu0.fetch.rateDist::max_value               8                       # Number of instructions fetched each cycle (Total)
system.cpu0.fetch.rateDist::total            30483875                       # Number of instructions fetched each cycle (Total)
system.cpu0.fetch.branchRate                 0.079217                       # Number of branch fetches per cycle
system.cpu0.fetch.rate                       0.233459                       # Number of inst fetches per cycle
system.cpu0.decode.IdleCycles                 1057274                       # Number of cycles decode is idle
system.cpu0.decode.BlockedCycles             27466518                       # Number of cycles decode is blocked
system.cpu0.decode.RunCycles                  1403163                       # Number of cycles decode is running
system.cpu0.decode.UnblockCycles               446339                       # Number of cycles decode is unblocking
system.cpu0.decode.SquashCycles                110581                       # Number of cycles decode is squashing
system.cpu0.decode.DecodedInsts              11996400                       # Number of instructions handled by decode
system.cpu0.rename.SquashCycles                110581                       # Number of cycles rename is squashing
system.cpu0.rename.IdleCycles                 1209552                       # Number of cycles rename is idle
system.cpu0.rename.BlockCycles               25819590                       # Number of cycles rename is blocking
system.cpu0.rename.serializeStallCycles         20638                       # count of cycles rename stalled for serializing inst
system.cpu0.rename.RunCycles                  1596791                       # Number of cycles rename is running
system.cpu0.rename.UnblockCycles              1726723                       # Number of cycles rename is unblocking
system.cpu0.rename.RenamedInsts              11494893                       # Number of instructions processed by rename
system.cpu0.rename.ROBFullEvents                80594                       # Number of times rename has blocked due to ROB full
system.cpu0.rename.IQFullEvents               1408933                       # Number of times rename has blocked due to IQ full
system.cpu0.rename.LQFullEvents                255048                       # Number of times rename has blocked due to LQ full
system.cpu0.rename.SQFullEvents                  1015                       # Number of times rename has blocked due to SQ full
system.cpu0.rename.RenamedOperands           13687775                       # Number of destination operands rename has renamed
system.cpu0.rename.RenameLookups             31856826                       # Number of register rename lookups that rename has made
system.cpu0.rename.int_rename_lookups        15203569                       # Number of integer rename lookups
system.cpu0.rename.fp_rename_lookups            67586                       # Number of floating rename lookups
system.cpu0.rename.CommittedMaps              4923117                       # Number of HB maps that are committed
system.cpu0.rename.UndoneMaps                 8764657                       # Number of HB maps that are undone due to squashing
system.cpu0.rename.serializingInsts               397                       # count of serializing insts renamed
system.cpu0.rename.tempSerializingInsts           479                       # count of temporary serializing insts renamed
system.cpu0.rename.skidInsts                  2747461                       # count of insts added to the skid buffer
system.cpu0.memDep0.insertedLoads             2033137                       # Number of loads inserted to the mem dependence unit.
system.cpu0.memDep0.insertedStores             132208                       # Number of stores inserted to the mem dependence unit.
system.cpu0.memDep0.conflictingLoads             7536                       # Number of conflicting loads.
system.cpu0.memDep0.conflictingStores            7342                       # Number of conflicting stores.
system.cpu0.iq.iqInstsAdded                  10839375                       # Number of instructions added to the IQ (excludes non-spec)
system.cpu0.iq.iqNonSpecInstsAdded               7479                       # Number of non-speculative instructions added to the IQ
system.cpu0.iq.iqInstsIssued                  7824193                       # Number of instructions issued
system.cpu0.iq.iqSquashedInstsIssued            11274                       # Number of squashed instructions issued
system.cpu0.iq.iqSquashedInstsExamined        6743883                       # Number of squashed instructions iterated over during squash; mainly for profiling
system.cpu0.iq.iqSquashedOperandsExamined     13915444                       # Number of squashed operands that are examined and possibly removed from graph
system.cpu0.iq.iqSquashedNonSpecRemoved          7479                       # Number of squashed non-spec instructions that were removed
system.cpu0.iq.issued_per_cycle::samples     30483875                       # Number of insts issued each cycle
system.cpu0.iq.issued_per_cycle::mean        0.256667                       # Number of insts issued each cycle
system.cpu0.iq.issued_per_cycle::stdev       0.932265                       # Number of insts issued each cycle
system.cpu0.iq.issued_per_cycle::underflows            0      0.00%      0.00% # Number of insts issued each cycle
system.cpu0.iq.issued_per_cycle::0           27411864     89.92%     89.92% # Number of insts issued each cycle
system.cpu0.iq.issued_per_cycle::1            1152641      3.78%     93.70% # Number of insts issued each cycle
system.cpu0.iq.issued_per_cycle::2             637157      2.09%     95.79% # Number of insts issued each cycle
system.cpu0.iq.issued_per_cycle::3             439828      1.44%     97.24% # Number of insts issued each cycle
system.cpu0.iq.issued_per_cycle::4             470174      1.54%     98.78% # Number of insts issued each cycle
system.cpu0.iq.issued_per_cycle::5             159235      0.52%     99.30% # Number of insts issued each cycle
system.cpu0.iq.issued_per_cycle::6             126150      0.41%     99.72% # Number of insts issued each cycle
system.cpu0.iq.issued_per_cycle::7              50625      0.17%     99.88% # Number of insts issued each cycle
system.cpu0.iq.issued_per_cycle::8              36201      0.12%    100.00% # Number of insts issued each cycle
system.cpu0.iq.issued_per_cycle::overflows            0      0.00%    100.00% # Number of insts issued each cycle
system.cpu0.iq.issued_per_cycle::min_value            0                       # Number of insts issued each cycle
system.cpu0.iq.issued_per_cycle::max_value            8                       # Number of insts issued each cycle
system.cpu0.iq.issued_per_cycle::total       30483875                       # Number of insts issued each cycle
system.cpu0.iq.fu_full::No_OpClass                  0      0.00%      0.00% # attempts to use FU when none available
system.cpu0.iq.fu_full::IntAlu                  20953     72.65%     72.65% # attempts to use FU when none available
system.cpu0.iq.fu_full::IntMult                     0      0.00%     72.65% # attempts to use FU when none available
system.cpu0.iq.fu_full::IntDiv                      0      0.00%     72.65% # attempts to use FU when none available
system.cpu0.iq.fu_full::FloatAdd                 2060      7.14%     79.80% # attempts to use FU when none available
system.cpu0.iq.fu_full::FloatCmp                    0      0.00%     79.80% # attempts to use FU when none available
system.cpu0.iq.fu_full::FloatCvt                    0      0.00%     79.80% # attempts to use FU when none available
system.cpu0.iq.fu_full::FloatMult                   0      0.00%     79.80% # attempts to use FU when none available
system.cpu0.iq.fu_full::FloatMultAcc                0      0.00%     79.80% # attempts to use FU when none available
system.cpu0.iq.fu_full::FloatDiv                    0      0.00%     79.80% # attempts to use FU when none available
system.cpu0.iq.fu_full::FloatMisc                   0      0.00%     79.80% # attempts to use FU when none available
system.cpu0.iq.fu_full::FloatSqrt                   0      0.00%     79.80% # attempts to use FU when none available
system.cpu0.iq.fu_full::SimdAdd                     0      0.00%     79.80% # attempts to use FU when none available
system.cpu0.iq.fu_full::SimdAddAcc                  0      0.00%     79.80% # attempts to use FU when none available
system.cpu0.iq.fu_full::SimdAlu                     0      0.00%     79.80% # attempts to use FU when none available
system.cpu0.iq.fu_full::SimdCmp                     0      0.00%     79.80% # attempts to use FU when none available
system.cpu0.iq.fu_full::SimdCvt                     0      0.00%     79.80% # attempts to use FU when none available
system.cpu0.iq.fu_full::SimdMisc                    0      0.00%     79.80% # attempts to use FU when none available
system.cpu0.iq.fu_full::SimdMult                    0      0.00%     79.80% # attempts to use FU when none available
system.cpu0.iq.fu_full::SimdMultAcc                 0      0.00%     79.80% # attempts to use FU when none available
system.cpu0.iq.fu_full::SimdShift                   0      0.00%     79.80% # attempts to use FU when none available
system.cpu0.iq.fu_full::SimdShiftAcc                0      0.00%     79.80% # attempts to use FU when none available
system.cpu0.iq.fu_full::SimdSqrt                    0      0.00%     79.80% # attempts to use FU when none available
system.cpu0.iq.fu_full::SimdFloatAdd                0      0.00%     79.80% # attempts to use FU when none available
system.cpu0.iq.fu_full::SimdFloatAlu                0      0.00%     79.80% # attempts to use FU when none available
system.cpu0.iq.fu_full::SimdFloatCmp                0      0.00%     79.80% # attempts to use FU when none available
system.cpu0.iq.fu_full::SimdFloatCvt                0      0.00%     79.80% # attempts to use FU when none available
system.cpu0.iq.fu_full::SimdFloatDiv                0      0.00%     79.80% # attempts to use FU when none available
system.cpu0.iq.fu_full::SimdFloatMisc               0      0.00%     79.80% # attempts to use FU when none available
system.cpu0.iq.fu_full::SimdFloatMult               0      0.00%     79.80% # attempts to use FU when none available
system.cpu0.iq.fu_full::SimdFloatMultAcc            0      0.00%     79.80% # attempts to use FU when none available
system.cpu0.iq.fu_full::SimdFloatSqrt               0      0.00%     79.80% # attempts to use FU when none available
system.cpu0.iq.fu_full::MemRead                  5078     17.61%     97.40% # attempts to use FU when none available
system.cpu0.iq.fu_full::MemWrite                  474      1.64%     99.05% # attempts to use FU when none available
system.cpu0.iq.fu_full::FloatMemRead              190      0.66%     99.71% # attempts to use FU when none available
system.cpu0.iq.fu_full::FloatMemWrite              85      0.29%    100.00% # attempts to use FU when none available
system.cpu0.iq.fu_full::IprAccess                   0      0.00%    100.00% # attempts to use FU when none available
system.cpu0.iq.fu_full::InstPrefetch                0      0.00%    100.00% # attempts to use FU when none available
system.cpu0.iq.FU_type_0::No_OpClass            29585      0.38%      0.38% # Type of FU issued
system.cpu0.iq.FU_type_0::IntAlu              6420302     82.06%     82.44% # Type of FU issued
system.cpu0.iq.FU_type_0::IntMult                1521      0.02%     82.45% # Type of FU issued
system.cpu0.iq.FU_type_0::IntDiv                19111      0.24%     82.70% # Type of FU issued
system.cpu0.iq.FU_type_0::FloatAdd              25943      0.33%     83.03% # Type of FU issued
system.cpu0.iq.FU_type_0::FloatCmp                  0      0.00%     83.03% # Type of FU issued
system.cpu0.iq.FU_type_0::FloatCvt                  0      0.00%     83.03% # Type of FU issued
system.cpu0.iq.FU_type_0::FloatMult                 0      0.00%     83.03% # Type of FU issued
system.cpu0.iq.FU_type_0::FloatMultAcc              0      0.00%     83.03% # Type of FU issued
system.cpu0.iq.FU_type_0::FloatDiv                  0      0.00%     83.03% # Type of FU issued
system.cpu0.iq.FU_type_0::FloatMisc                 0      0.00%     83.03% # Type of FU issued
system.cpu0.iq.FU_type_0::FloatSqrt                 0      0.00%     83.03% # Type of FU issued
system.cpu0.iq.FU_type_0::SimdAdd                   0      0.00%     83.03% # Type of FU issued
system.cpu0.iq.FU_type_0::SimdAddAcc                0      0.00%     83.03% # Type of FU issued
system.cpu0.iq.FU_type_0::SimdAlu                   0      0.00%     83.03% # Type of FU issued
system.cpu0.iq.FU_type_0::SimdCmp                   0      0.00%     83.03% # Type of FU issued
system.cpu0.iq.FU_type_0::SimdCvt                   0      0.00%     83.03% # Type of FU issued
system.cpu0.iq.FU_type_0::SimdMisc                  0      0.00%     83.03% # Type of FU issued
system.cpu0.iq.FU_type_0::SimdMult                  0      0.00%     83.03% # Type of FU issued
system.cpu0.iq.FU_type_0::SimdMultAcc               0      0.00%     83.03% # Type of FU issued
system.cpu0.iq.FU_type_0::SimdShift                 0      0.00%     83.03% # Type of FU issued
system.cpu0.iq.FU_type_0::SimdShiftAcc              0      0.00%     83.03% # Type of FU issued
system.cpu0.iq.FU_type_0::SimdSqrt                  0      0.00%     83.03% # Type of FU issued
system.cpu0.iq.FU_type_0::SimdFloatAdd              0      0.00%     83.03% # Type of FU issued
system.cpu0.iq.FU_type_0::SimdFloatAlu              0      0.00%     83.03% # Type of FU issued
system.cpu0.iq.FU_type_0::SimdFloatCmp              0      0.00%     83.03% # Type of FU issued
system.cpu0.iq.FU_type_0::SimdFloatCvt              0      0.00%     83.03% # Type of FU issued
system.cpu0.iq.FU_type_0::SimdFloatDiv              0      0.00%     83.03% # Type of FU issued
system.cpu0.iq.FU_type_0::SimdFloatMisc             0      0.00%     83.03% # Type of FU issued
system.cpu0.iq.FU_type_0::SimdFloatMult             0      0.00%     83.03% # Type of FU issued
system.cpu0.iq.FU_type_0::SimdFloatMultAcc            0      0.00%     83.03% # Type of FU issued
system.cpu0.iq.FU_type_0::SimdFloatSqrt             0      0.00%     83.03% # Type of FU issued
system.cpu0.iq.FU_type_0::MemRead             1225008     15.66%     98.69% # Type of FU issued
system.cpu0.iq.FU_type_0::MemWrite              97705      1.25%     99.94% # Type of FU issued
system.cpu0.iq.FU_type_0::FloatMemRead           4750      0.06%    100.00% # Type of FU issued
system.cpu0.iq.FU_type_0::FloatMemWrite           268      0.00%    100.00% # Type of FU issued
system.cpu0.iq.FU_type_0::IprAccess                 0      0.00%    100.00% # Type of FU issued
system.cpu0.iq.FU_type_0::InstPrefetch              0      0.00%    100.00% # Type of FU issued
system.cpu0.iq.FU_type_0::total               7824193                       # Type of FU issued
system.cpu0.iq.rate                          0.256239                       # Inst issue rate
system.cpu0.iq.fu_busy_cnt                      28840                       # FU busy when requested
system.cpu0.iq.fu_busy_rate                  0.003686                       # FU busy rate (busy events/executed inst)
system.cpu0.iq.int_inst_queue_reads          46107599                       # Number of integer instruction queue reads
system.cpu0.iq.int_inst_queue_writes         17535505                       # Number of integer instruction queue writes
system.cpu0.iq.int_inst_queue_wakeup_accesses      7468624                       # Number of integer instruction queue wakeup accesses
system.cpu0.iq.fp_inst_queue_reads              64776                       # Number of floating instruction queue reads
system.cpu0.iq.fp_inst_queue_writes             55242                       # Number of floating instruction queue writes
system.cpu0.iq.fp_inst_queue_wakeup_accesses        28548                       # Number of floating instruction queue wakeup accesses
system.cpu0.iq.vec_inst_queue_reads                 0                       # Number of vector instruction queue reads
system.cpu0.iq.vec_inst_queue_writes                0                       # Number of vector instruction queue writes
system.cpu0.iq.vec_inst_queue_wakeup_accesses            0                       # Number of vector instruction queue wakeup accesses
system.cpu0.iq.int_alu_accesses               7790137                       # Number of integer alu accesses
system.cpu0.iq.fp_alu_accesses                  33311                       # Number of floating point alu accesses
system.cpu0.iq.vec_alu_accesses                     0                       # Number of vector alu accesses
system.cpu0.iew.lsq.thread0.forwLoads            8997                       # Number of loads that had data forwarded from stores
system.cpu0.iew.lsq.thread0.invAddrLoads            0                       # Number of loads ignored due to an invalid address
system.cpu0.iew.lsq.thread0.squashedLoads      1281334                       # Number of loads squashed
system.cpu0.iew.lsq.thread0.ignoredResponses          301                       # Number of memory responses ignored because the instruction is squashed
system.cpu0.iew.lsq.thread0.memOrderViolation           10                       # Number of memory ordering violations
system.cpu0.iew.lsq.thread0.squashedStores        76200                       # Number of stores squashed
system.cpu0.iew.lsq.thread0.invAddrSwpfs            0                       # Number of software prefetches ignored due to an invalid address
system.cpu0.iew.lsq.thread0.blockedLoads            0                       # Number of blocked loads due to partial load-store forwarding
system.cpu0.iew.lsq.thread0.rescheduledLoads           62                       # Number of loads that were rescheduled
system.cpu0.iew.lsq.thread0.cacheBlocked         1997                       # Number of times an access to memory failed due to the cache being blocked
system.cpu0.iew.iewIdleCycles                       0                       # Number of cycles IEW is idle
system.cpu0.iew.iewSquashCycles                110581                       # Number of cycles IEW is squashing
system.cpu0.iew.iewBlockCycles               23516952                       # Number of cycles IEW is blocking
system.cpu0.iew.iewUnblockCycles               326457                       # Number of cycles IEW is unblocking
system.cpu0.iew.iewDispatchedInsts           10846854                       # Number of instructions dispatched to IQ
system.cpu0.iew.iewDispSquashedInsts             6333                       # Number of squashed instructions skipped by dispatch
system.cpu0.iew.iewDispLoadInsts              2033137                       # Number of dispatched load instructions
system.cpu0.iew.iewDispStoreInsts              132208                       # Number of dispatched store instructions
system.cpu0.iew.iewDispNonSpecInsts              2731                       # Number of dispatched non-speculative instructions
system.cpu0.iew.iewIQFullEvents                 26006                       # Number of times the IQ has become full, causing a stall
system.cpu0.iew.iewLSQFullEvents                63277                       # Number of times the LSQ has become full, causing a stall
system.cpu0.iew.memOrderViolationEvents            10                       # Number of memory order violations
system.cpu0.iew.predictedTakenIncorrect         55707                       # Number of branches that were predicted taken incorrectly
system.cpu0.iew.predictedNotTakenIncorrect        67910                       # Number of branches that were predicted not taken incorrectly
system.cpu0.iew.branchMispredicts              123617                       # Number of branch mispredicts detected at execute
system.cpu0.iew.iewExecutedInsts              7661079                       # Number of executed instructions
system.cpu0.iew.iewExecLoadInsts              1166169                       # Number of load instructions executed
system.cpu0.iew.iewExecSquashedInsts           163114                       # Number of squashed instructions skipped in execute
system.cpu0.iew.exec_swp                            0                       # number of swp insts executed
system.cpu0.iew.exec_nop                            0                       # number of nop insts executed
system.cpu0.iew.exec_refs                     1257140                       # number of memory reference insts executed
system.cpu0.iew.exec_branches                  913386                       # Number of branches executed
system.cpu0.iew.exec_stores                     90971                       # Number of stores executed
system.cpu0.iew.exec_rate                    0.250898                       # Inst execution rate
system.cpu0.iew.wb_sent                       7527694                       # cumulative count of insts sent to commit
system.cpu0.iew.wb_count                      7497172                       # cumulative count of insts written-back
system.cpu0.iew.wb_producers                  5583449                       # num instructions producing a value
system.cpu0.iew.wb_consumers                  8881700                       # num instructions consuming a value
system.cpu0.iew.wb_rate                      0.245530                       # insts written-back per cycle
system.cpu0.iew.wb_fanout                    0.628646                       # average fanout of values written-back
system.cpu0.commit.commitSquashedInsts        6744777                       # The number of squashed insts skipped by commit
system.cpu0.commit.branchMispredicts           110574                       # The number of times a branch was mispredicted
system.cpu0.commit.committed_per_cycle::samples     29523051                       # Number of insts commited each cycle
system.cpu0.commit.committed_per_cycle::mean     0.138975                       # Number of insts commited each cycle
system.cpu0.commit.committed_per_cycle::stdev     0.705579                       # Number of insts commited each cycle
system.cpu0.commit.committed_per_cycle::underflows            0      0.00%      0.00% # Number of insts commited each cycle
system.cpu0.commit.committed_per_cycle::0     27819889     94.23%     94.23% # Number of insts commited each cycle
system.cpu0.commit.committed_per_cycle::1       763745      2.59%     96.82% # Number of insts commited each cycle
system.cpu0.commit.committed_per_cycle::2       189222      0.64%     97.46% # Number of insts commited each cycle
system.cpu0.commit.committed_per_cycle::3       492692      1.67%     99.13% # Number of insts commited each cycle
system.cpu0.commit.committed_per_cycle::4        94132      0.32%     99.45% # Number of insts commited each cycle
system.cpu0.commit.committed_per_cycle::5        56636      0.19%     99.64% # Number of insts commited each cycle
system.cpu0.commit.committed_per_cycle::6        11657      0.04%     99.68% # Number of insts commited each cycle
system.cpu0.commit.committed_per_cycle::7         7568      0.03%     99.70% # Number of insts commited each cycle
system.cpu0.commit.committed_per_cycle::8        87510      0.30%    100.00% # Number of insts commited each cycle
system.cpu0.commit.committed_per_cycle::overflows            0      0.00%    100.00% # Number of insts commited each cycle
system.cpu0.commit.committed_per_cycle::min_value            0                       # Number of insts commited each cycle
system.cpu0.commit.committed_per_cycle::max_value            8                       # Number of insts commited each cycle
system.cpu0.commit.committed_per_cycle::total     29523051                       # Number of insts commited each cycle
system.cpu0.commit.committedInsts             2054004                       # Number of instructions committed
system.cpu0.commit.committedOps               4102971                       # Number of ops (including micro ops) committed
system.cpu0.commit.swp_count                        0                       # Number of s/w prefetches committed
system.cpu0.commit.refs                        807811                       # Number of memory references committed
system.cpu0.commit.loads                       751803                       # Number of loads committed
system.cpu0.commit.membars                          0                       # Number of memory barriers committed
system.cpu0.commit.branches                    717772                       # Number of branches committed
system.cpu0.commit.vec_insts                        0                       # Number of committed Vector instructions.
system.cpu0.commit.fp_insts                     22372                       # Number of committed floating point instructions.
system.cpu0.commit.int_insts                  4080319                       # Number of committed integer instructions.
system.cpu0.commit.function_calls                9875                       # Number of function calls committed.
system.cpu0.commit.op_class_0::No_OpClass         6768      0.16%      0.16% # Class of committed instruction
system.cpu0.commit.op_class_0::IntAlu         3252462     79.27%     79.44% # Class of committed instruction
system.cpu0.commit.op_class_0::IntMult            395      0.01%     79.45% # Class of committed instruction
system.cpu0.commit.op_class_0::IntDiv           16407      0.40%     79.85% # Class of committed instruction
system.cpu0.commit.op_class_0::FloatAdd         19128      0.47%     80.31% # Class of committed instruction
system.cpu0.commit.op_class_0::FloatCmp             0      0.00%     80.31% # Class of committed instruction
system.cpu0.commit.op_class_0::FloatCvt             0      0.00%     80.31% # Class of committed instruction
system.cpu0.commit.op_class_0::FloatMult            0      0.00%     80.31% # Class of committed instruction
system.cpu0.commit.op_class_0::FloatMultAcc            0      0.00%     80.31% # Class of committed instruction
system.cpu0.commit.op_class_0::FloatDiv             0      0.00%     80.31% # Class of committed instruction
system.cpu0.commit.op_class_0::FloatMisc            0      0.00%     80.31% # Class of committed instruction
system.cpu0.commit.op_class_0::FloatSqrt            0      0.00%     80.31% # Class of committed instruction
system.cpu0.commit.op_class_0::SimdAdd              0      0.00%     80.31% # Class of committed instruction
system.cpu0.commit.op_class_0::SimdAddAcc            0      0.00%     80.31% # Class of committed instruction
system.cpu0.commit.op_class_0::SimdAlu              0      0.00%     80.31% # Class of committed instruction
system.cpu0.commit.op_class_0::SimdCmp              0      0.00%     80.31% # Class of committed instruction
system.cpu0.commit.op_class_0::SimdCvt              0      0.00%     80.31% # Class of committed instruction
system.cpu0.commit.op_class_0::SimdMisc             0      0.00%     80.31% # Class of committed instruction
system.cpu0.commit.op_class_0::SimdMult             0      0.00%     80.31% # Class of committed instruction
system.cpu0.commit.op_class_0::SimdMultAcc            0      0.00%     80.31% # Class of committed instruction
system.cpu0.commit.op_class_0::SimdShift            0      0.00%     80.31% # Class of committed instruction
system.cpu0.commit.op_class_0::SimdShiftAcc            0      0.00%     80.31% # Class of committed instruction
system.cpu0.commit.op_class_0::SimdSqrt             0      0.00%     80.31% # Class of committed instruction
system.cpu0.commit.op_class_0::SimdFloatAdd            0      0.00%     80.31% # Class of committed instruction
system.cpu0.commit.op_class_0::SimdFloatAlu            0      0.00%     80.31% # Class of committed instruction
system.cpu0.commit.op_class_0::SimdFloatCmp            0      0.00%     80.31% # Class of committed instruction
system.cpu0.commit.op_class_0::SimdFloatCvt            0      0.00%     80.31% # Class of committed instruction
system.cpu0.commit.op_class_0::SimdFloatDiv            0      0.00%     80.31% # Class of committed instruction
system.cpu0.commit.op_class_0::SimdFloatMisc            0      0.00%     80.31% # Class of committed instruction
system.cpu0.commit.op_class_0::SimdFloatMult            0      0.00%     80.31% # Class of committed instruction
system.cpu0.commit.op_class_0::SimdFloatMultAcc            0      0.00%     80.31% # Class of committed instruction
system.cpu0.commit.op_class_0::SimdFloatSqrt            0      0.00%     80.31% # Class of committed instruction
system.cpu0.commit.op_class_0::MemRead         748559     18.24%     98.56% # Class of committed instruction
system.cpu0.commit.op_class_0::MemWrite         56008      1.37%     99.92% # Class of committed instruction
system.cpu0.commit.op_class_0::FloatMemRead         3244      0.08%    100.00% # Class of committed instruction
system.cpu0.commit.op_class_0::FloatMemWrite            0      0.00%    100.00% # Class of committed instruction
system.cpu0.commit.op_class_0::IprAccess            0      0.00%    100.00% # Class of committed instruction
system.cpu0.commit.op_class_0::InstPrefetch            0      0.00%    100.00% # Class of committed instruction
system.cpu0.commit.op_class_0::total          4102971                       # Class of committed instruction
system.cpu0.commit.bw_lim_events                87510                       # number cycles where commit BW limit reached
system.cpu0.rob.rob_reads                    40283289                       # The number of ROB reads
system.cpu0.rob.rob_writes                   22659326                       # The number of ROB writes
system.cpu0.timesIdled                            489                       # Number of times that the entire CPU went into an idle state and unscheduled itself
system.cpu0.idleCycles                          50813                       # Total number of cycles that the CPU has spent unscheduled due to idling
system.cpu0.committedInsts                    2054004                       # Number of Instructions Simulated
system.cpu0.committedOps                      4102971                       # Number of Ops (including micro ops) Simulated
system.cpu0.cpi                             14.865934                       # CPI: Cycles Per Instruction
system.cpu0.cpi_total                       14.865934                       # CPI: Total CPI of All Threads
system.cpu0.ipc                              0.067268                       # IPC: Instructions Per Cycle
system.cpu0.ipc_total                        0.067268                       # IPC: Total IPC of All Threads
system.cpu0.int_regfile_reads                 7821008                       # number of integer regfile reads
system.cpu0.int_regfile_writes                6508463                       # number of integer regfile writes
system.cpu0.fp_regfile_reads                    50420                       # number of floating regfile reads
system.cpu0.fp_regfile_writes                   25125                       # number of floating regfile writes
system.cpu0.cc_regfile_reads                  4807712                       # number of cc regfile reads
system.cpu0.cc_regfile_writes                 2093051                       # number of cc regfile writes
system.cpu0.misc_regfile_reads                3987110                       # number of misc regfile reads
system.cpu0.dcache.tags.pwrStateResidencyTicks::UNDEFINED  15267344125                       # Cumulative time (in ticks) in various power states
system.cpu0.dcache.tags.replacements           376786                       # number of replacements
system.cpu0.dcache.tags.tagsinuse                1024                       # Cycle average of tags in use
system.cpu0.dcache.tags.total_refs             545455                       # Total number of references to valid blocks.
system.cpu0.dcache.tags.sampled_refs           376786                       # Sample count of references to valid blocks.
system.cpu0.dcache.tags.avg_refs             1.447652                       # Average number of references to valid blocks.
system.cpu0.dcache.tags.warmup_cycle                0                       # Cycle when the warmup percentage was hit.
system.cpu0.dcache.tags.occ_blocks::cpu0.data         1024                       # Average occupied blocks per requestor
system.cpu0.dcache.tags.occ_percent::cpu0.data            1                       # Average percentage of cache occupancy
system.cpu0.dcache.tags.occ_percent::total            1                       # Average percentage of cache occupancy
system.cpu0.dcache.tags.occ_task_id_blocks::1024         1024                       # Occupied blocks per task id
system.cpu0.dcache.tags.age_task_id_blocks_1024::0          154                       # Occupied blocks per task id
system.cpu0.dcache.tags.age_task_id_blocks_1024::1          865                       # Occupied blocks per task id
system.cpu0.dcache.tags.age_task_id_blocks_1024::2            5                       # Occupied blocks per task id
system.cpu0.dcache.tags.occ_task_id_percent::1024            1                       # Percentage of cache occupancy per task id
system.cpu0.dcache.tags.tag_accesses          5200714                       # Number of tag accesses
system.cpu0.dcache.tags.data_accesses         5200714                       # Number of data accesses
system.cpu0.dcache.pwrStateResidencyTicks::UNDEFINED  15267344125                       # Cumulative time (in ticks) in various power states
system.cpu0.dcache.ReadReq_hits::cpu0.data       493577                       # number of ReadReq hits
system.cpu0.dcache.ReadReq_hits::total         493577                       # number of ReadReq hits
system.cpu0.dcache.WriteReq_hits::cpu0.data        54399                       # number of WriteReq hits
system.cpu0.dcache.WriteReq_hits::total         54399                       # number of WriteReq hits
system.cpu0.dcache.demand_hits::cpu0.data       547976                       # number of demand (read+write) hits
system.cpu0.dcache.demand_hits::total          547976                       # number of demand (read+write) hits
system.cpu0.dcache.overall_hits::cpu0.data       547976                       # number of overall hits
system.cpu0.dcache.overall_hits::total         547976                       # number of overall hits
system.cpu0.dcache.ReadReq_misses::cpu0.data       656397                       # number of ReadReq misses
system.cpu0.dcache.ReadReq_misses::total       656397                       # number of ReadReq misses
system.cpu0.dcache.WriteReq_misses::cpu0.data         1609                       # number of WriteReq misses
system.cpu0.dcache.WriteReq_misses::total         1609                       # number of WriteReq misses
system.cpu0.dcache.demand_misses::cpu0.data       658006                       # number of demand (read+write) misses
system.cpu0.dcache.demand_misses::total        658006                       # number of demand (read+write) misses
system.cpu0.dcache.overall_misses::cpu0.data       658006                       # number of overall misses
system.cpu0.dcache.overall_misses::total       658006                       # number of overall misses
system.cpu0.dcache.ReadReq_miss_latency::cpu0.data  34151717500                       # number of ReadReq miss cycles
system.cpu0.dcache.ReadReq_miss_latency::total  34151717500                       # number of ReadReq miss cycles
system.cpu0.dcache.WriteReq_miss_latency::cpu0.data     70223999                       # number of WriteReq miss cycles
system.cpu0.dcache.WriteReq_miss_latency::total     70223999                       # number of WriteReq miss cycles
system.cpu0.dcache.demand_miss_latency::cpu0.data  34221941499                       # number of demand (read+write) miss cycles
system.cpu0.dcache.demand_miss_latency::total  34221941499                       # number of demand (read+write) miss cycles
system.cpu0.dcache.overall_miss_latency::cpu0.data  34221941499                       # number of overall miss cycles
system.cpu0.dcache.overall_miss_latency::total  34221941499                       # number of overall miss cycles
system.cpu0.dcache.ReadReq_accesses::cpu0.data      1149974                       # number of ReadReq accesses(hits+misses)
system.cpu0.dcache.ReadReq_accesses::total      1149974                       # number of ReadReq accesses(hits+misses)
system.cpu0.dcache.WriteReq_accesses::cpu0.data        56008                       # number of WriteReq accesses(hits+misses)
system.cpu0.dcache.WriteReq_accesses::total        56008                       # number of WriteReq accesses(hits+misses)
system.cpu0.dcache.demand_accesses::cpu0.data      1205982                       # number of demand (read+write) accesses
system.cpu0.dcache.demand_accesses::total      1205982                       # number of demand (read+write) accesses
[...]
system.l2.ReadExReq_miss_rate::cpu0.data     0.338336                       # miss rate for ReadExReq accesses
system.l2.ReadExReq_miss_rate::total         0.338336                       # miss rate for ReadExReq accesses
system.l2.ReadCleanReq_miss_rate::cpu0.inst            1                       # miss rate for ReadCleanReq accesses
system.l2.ReadCleanReq_miss_rate::total             1                       # miss rate for ReadCleanReq accesses
system.l2.ReadSharedReq_miss_rate::cpu0.data     0.443448                       # miss rate for ReadSharedReq accesses
system.l2.ReadSharedReq_miss_rate::total     0.443448                       # miss rate for ReadSharedReq accesses
system.l2.demand_miss_rate::cpu0.inst               1                       # miss rate for demand accesses
system.l2.demand_miss_rate::cpu0.data        0.443002                       # miss rate for demand accesses
system.l2.demand_miss_rate::total            0.443005                       # miss rate for demand accesses
system.l2.overall_miss_rate::cpu0.inst              1                       # miss rate for overall accesses
system.l2.overall_miss_rate::cpu0.data       0.443002                       # miss rate for overall accesses
system.l2.overall_miss_rate::total           0.443005                       # miss rate for overall accesses
system.l2.ReadExReq_avg_miss_latency::cpu0.data 99676.524954                       # average ReadExReq miss latency
system.l2.ReadExReq_avg_miss_latency::total 99676.524954                       # average ReadExReq miss latency
system.l2.ReadCleanReq_avg_miss_latency::cpu0.inst       104250                       # average ReadCleanReq miss latency
system.l2.ReadCleanReq_avg_miss_latency::total       104250                       # average ReadCleanReq miss latency
system.l2.ReadSharedReq_avg_miss_latency::cpu0.data 95793.545944                       # average ReadSharedReq miss latency
system.l2.ReadSharedReq_avg_miss_latency::total 95793.545944                       # average ReadSharedReq miss latency
system.l2.demand_avg_miss_latency::cpu0.inst       104250                       # average overall miss latency
system.l2.demand_avg_miss_latency::cpu0.data 95806.131191                       # average overall miss latency
system.l2.demand_avg_miss_latency::total 95806.232364                       # average overall miss latency
system.l2.overall_avg_miss_latency::cpu0.inst       104250                       # average overall miss latency
system.l2.overall_avg_miss_latency::cpu0.data 95806.131191                       # average overall miss latency
system.l2.overall_avg_miss_latency::total 95806.232364                       # average overall miss latency
system.l2.blocked_cycles::no_mshrs                  0                       # number of cycles access was blocked
system.l2.blocked_cycles::no_targets                0                       # number of cycles access was blocked
system.l2.blocked::no_mshrs                         0                       # number of cycles access was blocked
system.l2.blocked::no_targets                       0                       # number of cycles access was blocked
system.l2.avg_blocked_cycles::no_mshrs            nan                       # average number of cycles each access was blocked
system.l2.avg_blocked_cycles::no_targets          nan                       # average number of cycles each access was blocked
system.l2.writebacks::writebacks                  655                       # number of writebacks
system.l2.writebacks::total                       655                       # number of writebacks
system.l2.ReadExReq_mshr_misses::cpu0.data          541                       # number of ReadExReq MSHR misses
system.l2.ReadExReq_mshr_misses::total            541                       # number of ReadExReq MSHR misses
system.l2.ReadCleanReq_mshr_misses::cpu0.inst            2                       # number of ReadCleanReq MSHR misses
system.l2.ReadCleanReq_mshr_misses::total            2                       # number of ReadCleanReq MSHR misses
system.l2.ReadSharedReq_mshr_misses::cpu0.data       166376                       # number of ReadSharedReq MSHR misses
system.l2.ReadSharedReq_mshr_misses::total       166376                       # number of ReadSharedReq MSHR misses
system.l2.demand_mshr_misses::cpu0.inst             2                       # number of demand (read+write) MSHR misses
system.l2.demand_mshr_misses::cpu0.data        166917                       # number of demand (read+write) MSHR misses
system.l2.demand_mshr_misses::total            166919                       # number of demand (read+write) MSHR misses
system.l2.overall_mshr_misses::cpu0.inst            2                       # number of overall MSHR misses
system.l2.overall_mshr_misses::cpu0.data       166917                       # number of overall MSHR misses
system.l2.overall_mshr_misses::total           166919                       # number of overall MSHR misses
system.l2.ReadExReq_mshr_miss_latency::cpu0.data     48515000                       # number of ReadExReq MSHR miss cycles
system.l2.ReadExReq_mshr_miss_latency::total     48515000                       # number of ReadExReq MSHR miss cycles
system.l2.ReadCleanReq_mshr_miss_latency::cpu0.inst       188500                       # number of ReadCleanReq MSHR miss cycles
system.l2.ReadCleanReq_mshr_miss_latency::total       188500                       # number of ReadCleanReq MSHR miss cycles
system.l2.ReadSharedReq_mshr_miss_latency::cpu0.data  14273987000                       # number of ReadSharedReq MSHR miss cycles
system.l2.ReadSharedReq_mshr_miss_latency::total  14273987000                       # number of ReadSharedReq MSHR miss cycles
system.l2.demand_mshr_miss_latency::cpu0.inst       188500                       # number of demand (read+write) MSHR miss cycles
system.l2.demand_mshr_miss_latency::cpu0.data  14322502000                       # number of demand (read+write) MSHR miss cycles
system.l2.demand_mshr_miss_latency::total  14322690500                       # number of demand (read+write) MSHR miss cycles
system.l2.overall_mshr_miss_latency::cpu0.inst       188500                       # number of overall MSHR miss cycles
system.l2.overall_mshr_miss_latency::cpu0.data  14322502000                       # number of overall MSHR miss cycles
system.l2.overall_mshr_miss_latency::total  14322690500                       # number of overall MSHR miss cycles
system.l2.ReadExReq_mshr_miss_rate::cpu0.data     0.338336                       # mshr miss rate for ReadExReq accesses
system.l2.ReadExReq_mshr_miss_rate::total     0.338336                       # mshr miss rate for ReadExReq accesses
system.l2.ReadCleanReq_mshr_miss_rate::cpu0.inst            1                       # mshr miss rate for ReadCleanReq accesses
system.l2.ReadCleanReq_mshr_miss_rate::total            1                       # mshr miss rate for ReadCleanReq accesses
system.l2.ReadSharedReq_mshr_miss_rate::cpu0.data     0.443448                       # mshr miss rate for ReadSharedReq accesses
system.l2.ReadSharedReq_mshr_miss_rate::total     0.443448                       # mshr miss rate for ReadSharedReq accesses
system.l2.demand_mshr_miss_rate::cpu0.inst            1                       # mshr miss rate for demand accesses
system.l2.demand_mshr_miss_rate::cpu0.data     0.443002                       # mshr miss rate for demand accesses
system.l2.demand_mshr_miss_rate::total       0.443005                       # mshr miss rate for demand accesses
system.l2.overall_mshr_miss_rate::cpu0.inst            1                       # mshr miss rate for overall accesses
system.l2.overall_mshr_miss_rate::cpu0.data     0.443002                       # mshr miss rate for overall accesses
system.l2.overall_mshr_miss_rate::total      0.443005                       # mshr miss rate for overall accesses
system.l2.ReadExReq_avg_mshr_miss_latency::cpu0.data 89676.524954                       # average ReadExReq mshr miss latency
system.l2.ReadExReq_avg_mshr_miss_latency::total 89676.524954                       # average ReadExReq mshr miss latency
system.l2.ReadCleanReq_avg_mshr_miss_latency::cpu0.inst        94250                       # average ReadCleanReq mshr miss latency
system.l2.ReadCleanReq_avg_mshr_miss_latency::total        94250                       # average ReadCleanReq mshr miss latency
system.l2.ReadSharedReq_avg_mshr_miss_latency::cpu0.data 85793.545944                       # average ReadSharedReq mshr miss latency
system.l2.ReadSharedReq_avg_mshr_miss_latency::total 85793.545944                       # average ReadSharedReq mshr miss latency
system.l2.demand_avg_mshr_miss_latency::cpu0.inst        94250                       # average overall mshr miss latency
system.l2.demand_avg_mshr_miss_latency::cpu0.data 85806.131191                       # average overall mshr miss latency
system.l2.demand_avg_mshr_miss_latency::total 85806.232364                       # average overall mshr miss latency
system.l2.overall_avg_mshr_miss_latency::cpu0.inst        94250                       # average overall mshr miss latency
system.l2.overall_avg_mshr_miss_latency::cpu0.data 85806.131191                       # average overall mshr miss latency
system.l2.overall_avg_mshr_miss_latency::total 85806.232364                       # average overall mshr miss latency
system.membus.snoop_filter.tot_requests        333837                       # Total number of requests made to the snoop filter.
system.membus.snoop_filter.hit_single_requests       166919                       # Number of requests hitting in the snoop filter with a single holder of the requested data.
system.membus.snoop_filter.hit_multi_requests            0                       # Number of requests hitting in the snoop filter with multiple (>1) holders of the requested data.
system.membus.snoop_filter.tot_snoops               0                       # Total number of snoops made to the snoop filter.
system.membus.snoop_filter.hit_single_snoops            0                       # Number of snoops hitting in the snoop filter with a single holder of the requested data.
system.membus.snoop_filter.hit_multi_snoops            0                       # Number of snoops hitting in the snoop filter with multiple (>1) holders of the requested data.
system.membus.pwrStateResidencyTicks::UNDEFINED  15267344125                       # Cumulative time (in ticks) in various power states
system.membus.trans_dist::ReadResp             166378                       # Transaction distribution
system.membus.trans_dist::WritebackDirty          655                       # Transaction distribution
system.membus.trans_dist::CleanEvict           166263                       # Transaction distribution
system.membus.trans_dist::ReadExReq               541                       # Transaction distribution
system.membus.trans_dist::ReadExResp              541                       # Transaction distribution
system.membus.trans_dist::ReadSharedReq        166378                       # Transaction distribution
system.membus.pkt_count_system.l2.mem_side::system.mem_ctrls.port       500756                       # Packet count per connected master and slave (bytes)
system.membus.pkt_count_system.l2.mem_side::total       500756                       # Packet count per connected master and slave (bytes)
system.membus.pkt_count::total                 500756                       # Packet count per connected master and slave (bytes)
system.membus.pkt_size_system.l2.mem_side::system.mem_ctrls.port     10724736                       # Cumulative packet size per connected master and slave (bytes)
system.membus.pkt_size_system.l2.mem_side::total     10724736                       # Cumulative packet size per connected master and slave (bytes)
system.membus.pkt_size::total                10724736                       # Cumulative packet size per connected master and slave (bytes)
system.membus.snoops                                0                       # Total snoops (count)
system.membus.snoopTraffic                          0                       # Total snoop traffic (bytes)
system.membus.snoop_fanout::samples            166919                       # Request fanout histogram
system.membus.snoop_fanout::mean                    0                       # Request fanout histogram
system.membus.snoop_fanout::stdev                   0                       # Request fanout histogram
system.membus.snoop_fanout::underflows              0      0.00%      0.00% # Request fanout histogram
system.membus.snoop_fanout::0                  166919    100.00%    100.00% # Request fanout histogram
system.membus.snoop_fanout::1                       0      0.00%    100.00% # Request fanout histogram
system.membus.snoop_fanout::overflows               0      0.00%    100.00% # Request fanout histogram
system.membus.snoop_fanout::min_value               0                       # Request fanout histogram
system.membus.snoop_fanout::max_value               0                       # Request fanout histogram
system.membus.snoop_fanout::total              166919                       # Request fanout histogram
system.membus.reqLayer8.occupancy           391601500                       # Layer occupancy (ticks)
system.membus.reqLayer8.utilization               2.6                       # Layer utilization (%)
system.membus.respLayer1.occupancy          907390000                       # Layer occupancy (ticks)
system.membus.respLayer1.utilization              5.9                       # Layer utilization (%)
system.tol2bus.snoop_filter.tot_requests       753576                       # Total number of requests made to the snoop filter.
system.tol2bus.snoop_filter.hit_single_requests       376788                       # Number of requests hitting in the snoop filter with a single holder of the requested data.
system.tol2bus.snoop_filter.hit_multi_requests          841                       # Number of requests hitting in the snoop filter with multiple (>1) holders of the requested data.
system.tol2bus.snoop_filter.tot_snoops              3                       # Total number of snoops made to the snoop filter.
system.tol2bus.snoop_filter.hit_single_snoops            3                       # Number of snoops hitting in the snoop filter with a single holder of the requested data.
system.tol2bus.snoop_filter.hit_multi_snoops            0                       # Number of snoops hitting in the snoop filter with multiple (>1) holders of the requested data.
system.tol2bus.pwrStateResidencyTicks::UNDEFINED  15267344125                       # Cumulative time (in ticks) in various power states
system.tol2bus.trans_dist::ReadResp            375189                       # Transaction distribution
system.tol2bus.trans_dist::WritebackDirty         5217                       # Transaction distribution
system.tol2bus.trans_dist::WritebackClean            2                       # Transaction distribution
system.tol2bus.trans_dist::CleanEvict          538490                       # Transaction distribution
system.tol2bus.trans_dist::ReadExReq             1599                       # Transaction distribution
system.tol2bus.trans_dist::ReadExResp            1599                       # Transaction distribution
system.tol2bus.trans_dist::ReadCleanReq             2                       # Transaction distribution
system.tol2bus.trans_dist::ReadSharedReq       375187                       # Transaction distribution
system.tol2bus.pkt_count_system.cpu0.icache.mem_side::system.l2.cpu_side            6                       # Packet count per connected master and slave (bytes)
system.tol2bus.pkt_count_system.cpu0.dcache.mem_side::system.l2.cpu_side      1130358                       # Packet count per connected master and slave (bytes)
system.tol2bus.pkt_count::total               1130364                       # Packet count per connected master and slave (bytes)
system.tol2bus.pkt_size_system.cpu0.icache.mem_side::system.l2.cpu_side          256                       # Cumulative packet size per connected master and slave (bytes)
system.tol2bus.pkt_size_system.cpu0.dcache.mem_side::system.l2.cpu_side     24406272                       # Cumulative packet size per connected master and slave (bytes)
system.tol2bus.pkt_size::total               24406528                       # Cumulative packet size per connected master and slave (bytes)
system.tol2bus.snoops                          166921                       # Total snoops (count)
system.tol2bus.snoopTraffic                     41920                       # Total snoop traffic (bytes)
system.tol2bus.snoop_fanout::samples           543709                       # Request fanout histogram
system.tol2bus.snoop_fanout::mean            0.001552                       # Request fanout histogram
system.tol2bus.snoop_fanout::stdev           0.039369                       # Request fanout histogram
system.tol2bus.snoop_fanout::underflows             0      0.00%      0.00% # Request fanout histogram
system.tol2bus.snoop_fanout::0                 542865     99.84%     99.84% # Request fanout histogram
system.tol2bus.snoop_fanout::1                    844      0.16%    100.00% # Request fanout histogram
system.tol2bus.snoop_fanout::2                      0      0.00%    100.00% # Request fanout histogram
system.tol2bus.snoop_fanout::3                      0      0.00%    100.00% # Request fanout histogram
system.tol2bus.snoop_fanout::4                      0      0.00%    100.00% # Request fanout histogram
system.tol2bus.snoop_fanout::5                      0      0.00%    100.00% # Request fanout histogram
system.tol2bus.snoop_fanout::6                      0      0.00%    100.00% # Request fanout histogram
system.tol2bus.snoop_fanout::7                      0      0.00%    100.00% # Request fanout histogram
system.tol2bus.snoop_fanout::8                      0      0.00%    100.00% # Request fanout histogram
system.tol2bus.snoop_fanout::9                      0      0.00%    100.00% # Request fanout histogram
system.tol2bus.snoop_fanout::10                     0      0.00%    100.00% # Request fanout histogram
system.tol2bus.snoop_fanout::11                     0      0.00%    100.00% # Request fanout histogram
system.tol2bus.snoop_fanout::12                     0      0.00%    100.00% # Request fanout histogram
system.tol2bus.snoop_fanout::13                     0      0.00%    100.00% # Request fanout histogram
system.tol2bus.snoop_fanout::14                     0      0.00%    100.00% # Request fanout histogram
system.tol2bus.snoop_fanout::15                     0      0.00%    100.00% # Request fanout histogram
system.tol2bus.snoop_fanout::16                     0      0.00%    100.00% # Request fanout histogram
system.tol2bus.snoop_fanout::overflows              0      0.00%    100.00% # Request fanout histogram
system.tol2bus.snoop_fanout::min_value              0                       # Request fanout histogram
system.tol2bus.snoop_fanout::max_value              1                       # Request fanout histogram
system.tol2bus.snoop_fanout::total             543709                       # Request fanout histogram
system.tol2bus.reqLayer0.occupancy          381352000                       # Layer occupancy (ticks)
system.tol2bus.reqLayer0.utilization              2.5                       # Layer utilization (%)
system.tol2bus.respLayer0.occupancy              3000                       # Layer occupancy (ticks)
system.tol2bus.respLayer0.utilization             0.0                       # Layer utilization (%)
system.tol2bus.respLayer1.occupancy         565179000                       # Layer occupancy (ticks)
system.tol2bus.respLayer1.utilization             3.7                       # Layer utilization (%)

---------- End Simulation Statistics   ----------
