
---------- Begin Simulation Statistics ----------
sim_seconds                                  0.015267                       # Number of seconds simulated
sim_ticks                                 15267344125                       # Number of ticks simulated
final_tick                               7740543471375                       # Number of ticks from beginning of simulation (restored from checkpoints and never reset)
sim_freq                                 1000000000000                       # Frequency of simulated ticks
host_inst_rate                               77497205                       # Simulator instruction rate (inst/s)
host_op_rate                                144518427                       # Simulator op (including micro ops) rate (op/s)
host_tick_rate                              194733978                       # Simulator tick rate (ticks/s)
host_mem_usage                                2332536                       # Number of bytes of host memory used
host_seconds                                    78.40                       # Real time elapsed on the host
sim_insts                                  6075857704                       # Number of instructions simulated
sim_ops                                   11330390726                       # Number of ops (including micro ops) simulated
system.voltage_domain.voltage                       1                       # Voltage in Volts
system.clk_domain.clock                          1000                       # Clock period in ticks
system.mem_ctrls.pwrStateResidencyTicks::UNDEFINED  15267344125                       # Cumulative time (in ticks) in various power states
system.mem_ctrls.bytes_read::cpu0.data       12232704                       # Number of bytes read from this memory
system.mem_ctrls.bytes_read::total           12232704                       # Number of bytes read from this memory
system.mem_ctrls.bytes_written::writebacks        18112                       # Number of bytes written to this memory
system.mem_ctrls.bytes_written::total           18112                       # Number of bytes written to this memory
system.mem_ctrls.num_reads::cpu0.data          191136                       # Number of read requests responded to by this memory
system.mem_ctrls.num_reads::total              191136                       # Number of read requests responded to by this memory
system.mem_ctrls.num_writes::writebacks           283                       # Number of write requests responded to by this memory
system.mem_ctrls.num_writes::total                283                       # Number of write requests responded to by this memory
system.mem_ctrls.bw_read::cpu0.data         801233266                       # Total read bandwidth from this memory (bytes/s)
system.mem_ctrls.bw_read::total             801233266                       # Total read bandwidth from this memory (bytes/s)
system.mem_ctrls.bw_write::writebacks         1186323                       # Write bandwidth from this memory (bytes/s)
system.mem_ctrls.bw_write::total              1186323                       # Write bandwidth from this memory (bytes/s)
system.mem_ctrls.bw_total::writebacks         1186323                       # Total bandwidth to/from this memory (bytes/s)
system.mem_ctrls.bw_total::cpu0.data        801233266                       # Total bandwidth to/from this memory (bytes/s)
system.mem_ctrls.bw_total::total            802419589                       # Total bandwidth to/from this memory (bytes/s)
system.mem_ctrls.readReqs                      191137                       # Number of read requests accepted
system.mem_ctrls.writeReqs                        283                       # Number of write requests accepted
system.mem_ctrls.readBursts                    191137                       # Number of DRAM read bursts, including those serviced by the write queue
system.mem_ctrls.writeBursts                      283                       # Number of DRAM write bursts, including those merged in the write queue
system.mem_ctrls.bytesReadDRAM               12231168                       # Total number of bytes read from DRAM
system.mem_ctrls.bytesReadWrQ                    1600                       # Total number of bytes read from write queue
system.mem_ctrls.bytesWritten                   18432                       # Total number of bytes written to DRAM
system.mem_ctrls.bytesReadSys                12232768                       # Total read bytes from the system interface side
system.mem_ctrls.bytesWrittenSys                18112                       # Total written bytes from the system interface side
system.mem_ctrls.servicedByWrQ                     25                       # Number of DRAM read bursts serviced by the write queue
system.mem_ctrls.mergedWrBursts                     0                       # Number of DRAM write bursts merged with an existing one
system.mem_ctrls.neitherReadNorWriteReqs            0                       # Number of requests that are neither read nor write
system.mem_ctrls.perBankRdBursts::0             11655                       # Per bank write bursts
system.mem_ctrls.perBankRdBursts::1             11460                       # Per bank write bursts
system.mem_ctrls.perBankRdBursts::2             11650                       # Per bank write bursts
system.mem_ctrls.perBankRdBursts::3             12048                       # Per bank write bursts
system.mem_ctrls.perBankRdBursts::4             12165                       # Per bank write bursts
system.mem_ctrls.perBankRdBursts::5             12175                       # Per bank write bursts
system.mem_ctrls.perBankRdBursts::6             11995                       # Per bank write bursts
system.mem_ctrls.perBankRdBursts::7             11970                       # Per bank write bursts
system.mem_ctrls.perBankRdBursts::8             12077                       # Per bank write bursts
system.mem_ctrls.perBankRdBursts::9             12002                       # Per bank write bursts
system.mem_ctrls.perBankRdBursts::10            12214                       # Per bank write bursts
system.mem_ctrls.perBankRdBursts::11            11974                       # Per bank write bursts
system.mem_ctrls.perBankRdBursts::12            12078                       # Per bank write bursts
system.mem_ctrls.perBankRdBursts::13            11851                       # Per bank write bursts
system.mem_ctrls.perBankRdBursts::14            11927                       # Per bank write bursts
system.mem_ctrls.perBankRdBursts::15            11871                       # Per bank write bursts
system.mem_ctrls.perBankWrBursts::0                 0                       # Per bank write bursts
system.mem_ctrls.perBankWrBursts::1                 0                       # Per bank write bursts
system.mem_ctrls.perBankWrBursts::2                 0                       # Per bank write bursts
system.mem_ctrls.perBankWrBursts::3                69                       # Per bank write bursts
system.mem_ctrls.perBankWrBursts::4                10                       # Per bank write bursts
system.mem_ctrls.perBankWrBursts::5                 0                       # Per bank write bursts
system.mem_ctrls.perBankWrBursts::6                 0                       # Per bank write bursts
system.mem_ctrls.perBankWrBursts::7                 0                       # Per bank write bursts
system.mem_ctrls.perBankWrBursts::8                 0                       # Per bank write bursts
system.mem_ctrls.perBankWrBursts::9                 0                       # Per bank write bursts
system.mem_ctrls.perBankWrBursts::10                0                       # Per bank write bursts
system.mem_ctrls.perBankWrBursts::11               20                       # Per bank write bursts
system.mem_ctrls.perBankWrBursts::12              109                       # Per bank write bursts
system.mem_ctrls.perBankWrBursts::13               72                       # Per bank write bursts
system.mem_ctrls.perBankWrBursts::14                8                       # Per bank write bursts
system.mem_ctrls.perBankWrBursts::15                0                       # Per bank write bursts
system.mem_ctrls.numRdRetry                         0                       # Number of times read queue was full causing retry
system.mem_ctrls.numWrRetry                         0                       # Number of times write queue was full causing retry
system.mem_ctrls.totGap                   15267385500                       # Total gap between requests
system.mem_ctrls.readPktSize::0                     0                       # Read request sizes (log2)
system.mem_ctrls.readPktSize::1                     0                       # Read request sizes (log2)
system.mem_ctrls.readPktSize::2                     0                       # Read request sizes (log2)
system.mem_ctrls.readPktSize::3                     0                       # Read request sizes (log2)
system.mem_ctrls.readPktSize::4                     0                       # Read request sizes (log2)
system.mem_ctrls.readPktSize::5                     0                       # Read request sizes (log2)
system.mem_ctrls.readPktSize::6                191137                       # Read request sizes (log2)
system.mem_ctrls.writePktSize::0                    0                       # Write request sizes (log2)
system.mem_ctrls.writePktSize::1                    0                       # Write request sizes (log2)
system.mem_ctrls.writePktSize::2                    0                       # Write request sizes (log2)
system.mem_ctrls.writePktSize::3                    0                       # Write request sizes (log2)
system.mem_ctrls.writePktSize::4                    0                       # Write request sizes (log2)
system.mem_ctrls.writePktSize::5                    0                       # Write request sizes (log2)
system.mem_ctrls.writePktSize::6                  283                       # Write request sizes (log2)
system.mem_ctrls.rdQLenPdf::0                  145035                       # What read queue length does an incoming req see
system.mem_ctrls.rdQLenPdf::1                   42970                       # What read queue length does an incoming req see
system.mem_ctrls.rdQLenPdf::2                    3044                       # What read queue length does an incoming req see
system.mem_ctrls.rdQLenPdf::3                      63                       # What read queue length does an incoming req see
system.mem_ctrls.rdQLenPdf::4                       0                       # What read queue length does an incoming req see
system.mem_ctrls.rdQLenPdf::5                       0                       # What read queue length does an incoming req see
system.mem_ctrls.rdQLenPdf::6                       0                       # What read queue length does an incoming req see
system.mem_ctrls.rdQLenPdf::7                       0                       # What read queue length does an incoming req see
system.mem_ctrls.rdQLenPdf::8                       0                       # What read queue length does an incoming req see
system.mem_ctrls.rdQLenPdf::9                       0                       # What read queue length does an incoming req see
system.mem_ctrls.rdQLenPdf::10                      0                       # What read queue length does an incoming req see
system.mem_ctrls.rdQLenPdf::11                      0                       # What read queue length does an incoming req see
system.mem_ctrls.rdQLenPdf::12                      0                       # What read queue length does an incoming req see
system.mem_ctrls.rdQLenPdf::13                      0                       # What read queue length does an incoming req see
system.mem_ctrls.rdQLenPdf::14                      0                       # What read queue length does an incoming req see
system.mem_ctrls.rdQLenPdf::15                      0                       # What read queue length does an incoming req see
system.mem_ctrls.rdQLenPdf::16                      0                       # What read queue length does an incoming req see
system.mem_ctrls.rdQLenPdf::17                      0                       # What read queue length does an incoming req see
system.mem_ctrls.rdQLenPdf::18                      0                       # What read queue length does an incoming req see
system.mem_ctrls.rdQLenPdf::19                      0                       # What read queue length does an incoming req see
system.mem_ctrls.rdQLenPdf::20                      0                       # What read queue length does an incoming req see
system.mem_ctrls.rdQLenPdf::21                      0                       # What read queue length does an incoming req see
system.mem_ctrls.rdQLenPdf::22                      0                       # What read queue length does an incoming req see
system.mem_ctrls.rdQLenPdf::23                      0                       # What read queue length does an incoming req see
system.mem_ctrls.rdQLenPdf::24                      0                       # What read queue length does an incoming req see
system.mem_ctrls.rdQLenPdf::25                      0                       # What read queue length does an incoming req see
system.mem_ctrls.rdQLenPdf::26                      0                       # What read queue length does an incoming req see
system.mem_ctrls.rdQLenPdf::27                      0                       # What read queue length does an incoming req see
system.mem_ctrls.rdQLenPdf::28                      0                       # What read queue length does an incoming req see
system.mem_ctrls.rdQLenPdf::29                      0                       # What read queue length does an incoming req see
system.mem_ctrls.rdQLenPdf::30                      0                       # What read queue length does an incoming req see
system.mem_ctrls.rdQLenPdf::31                      0                       # What read queue length does an incoming req see
system.mem_ctrls.wrQLenPdf::0                       0                       # What write queue length does an incoming req see
system.mem_ctrls.wrQLenPdf::1                       0                       # What write queue length does an incoming req see
system.mem_ctrls.wrQLenPdf::2                       0                       # What write queue length does an incoming req see
system.mem_ctrls.wrQLenPdf::3                       0                       # What write queue length does an incoming req see
system.mem_ctrls.wrQLenPdf::4                       0                       # What write queue length does an incoming req see
system.mem_ctrls.wrQLenPdf::5                       0                       # What write queue length does an incoming req see
system.mem_ctrls.wrQLenPdf::6                       0                       # What write queue length does an incoming req see
system.mem_ctrls.wrQLenPdf::7                       0                       # What write queue length does an incoming req see
system.mem_ctrls.wrQLenPdf::8                       0                       # What write queue length does an incoming req see
system.mem_ctrls.wrQLenPdf::9                       0                       # What write queue length does an incoming req see
system.mem_ctrls.wrQLenPdf::10                      0                       # What write queue length does an incoming req see
system.mem_ctrls.wrQLenPdf::11                      0                       # What write queue length does an incoming req see
system.mem_ctrls.wrQLenPdf::12                      0                       # What write queue length does an incoming req see
system.mem_ctrls.wrQLenPdf::13                      0                       # What write queue length does an incoming req see
system.mem_ctrls.wrQLenPdf::14                      0                       # What write queue length does an incoming req see
system.mem_ctrls.wrQLenPdf::15                      0                       # What write queue length does an incoming req see
system.mem_ctrls.wrQLenPdf::16                      0                       # What write queue length does an incoming req see
system.mem_ctrls.wrQLenPdf::17                     17                       # What write queue length does an incoming req see
system.mem_ctrls.wrQLenPdf::18                     18                       # What write queue length does an incoming req see
system.mem_ctrls.wrQLenPdf::19                     18                       # What write queue length does an incoming req see
system.mem_ctrls.wrQLenPdf::20                     18                       # What write queue length does an incoming req see
system.mem_ctrls.wrQLenPdf::21                     18                       # What write queue length does an incoming req see
system.mem_ctrls.wrQLenPdf::22                     17                       # What write queue length does an incoming req see
system.mem_ctrls.wrQLenPdf::23                     17                       # What write queue length does an incoming req see
system.mem_ctrls.wrQLenPdf::24                     17                       # What write queue length does an incoming req see
system.mem_ctrls.wrQLenPdf::25                     17                       # What write queue length does an incoming req see
system.mem_ctrls.wrQLenPdf::26                     17                       # What write queue length does an incoming req see
system.mem_ctrls.wrQLenPdf::27                     18                       # What write queue length does an incoming req see
system.mem_ctrls.wrQLenPdf::28                     18                       # What write queue length does an incoming req see
system.mem_ctrls.wrQLenPdf::29                     18                       # What write queue length does an incoming req see
system.mem_ctrls.wrQLenPdf::30                     19                       # What write queue length does an incoming req see
system.mem_ctrls.wrQLenPdf::31                     18                       # What write queue length does an incoming req see
system.mem_ctrls.wrQLenPdf::32                     18                       # What write queue length does an incoming req see
system.mem_ctrls.wrQLenPdf::33                      0                       # What write queue length does an incoming req see
system.mem_ctrls.wrQLenPdf::34                      0                       # What write queue length does an incoming req see
system.mem_ctrls.wrQLenPdf::35                      0                       # What write queue length does an incoming req see
system.mem_ctrls.wrQLenPdf::36                      0                       # What write queue length does an incoming req see
system.mem_ctrls.wrQLenPdf::37                      0                       # What write queue length does an incoming req see
system.mem_ctrls.wrQLenPdf::38                      0                       # What write queue length does an incoming req see
system.mem_ctrls.wrQLenPdf::39                      0                       # What write queue length does an incoming req see
system.mem_ctrls.wrQLenPdf::40                      0                       # What write queue length does an incoming req see
system.mem_ctrls.wrQLenPdf::41                      0                       # What write queue length does an incoming req see
system.mem_ctrls.wrQLenPdf::42                      0                       # What write queue length does an incoming req see
system.mem_ctrls.wrQLenPdf::43                      0                       # What write queue length does an incoming req see
system.mem_ctrls.wrQLenPdf::44                      0                       # What write queue length does an incoming req see
system.mem_ctrls.wrQLenPdf::45                      0                       # What write queue length does an incoming req see
system.mem_ctrls.wrQLenPdf::46                      0                       # What write queue length does an incoming req see
system.mem_ctrls.wrQLenPdf::47                      0                       # What write queue length does an incoming req see
system.mem_ctrls.wrQLenPdf::48                      0                       # What write queue length does an incoming req see
system.mem_ctrls.wrQLenPdf::49                      0                       # What write queue length does an incoming req see
system.mem_ctrls.wrQLenPdf::50                      0                       # What write queue length does an incoming req see
system.mem_ctrls.wrQLenPdf::51                      0                       # What write queue length does an incoming req see
system.mem_ctrls.wrQLenPdf::52                      0                       # What write queue length does an incoming req see
system.mem_ctrls.wrQLenPdf::53                      0                       # What write queue length does an incoming req see
system.mem_ctrls.wrQLenPdf::54                      0                       # What write queue length does an incoming req see
system.mem_ctrls.wrQLenPdf::55                      0                       # What write queue length does an incoming req see
system.mem_ctrls.wrQLenPdf::56                      0                       # What write queue length does an incoming req see
system.mem_ctrls.wrQLenPdf::57                      0                       # What write queue length does an incoming req see
system.mem_ctrls.wrQLenPdf::58                      0                       # What write queue length does an incoming req see
system.mem_ctrls.wrQLenPdf::59                      0                       # What write queue length does an incoming req see
system.mem_ctrls.wrQLenPdf::60                      0                       # What write queue length does an incoming req see
system.mem_ctrls.wrQLenPdf::61                      0                       # What write queue length does an incoming req see
system.mem_ctrls.wrQLenPdf::62                      0                       # What write queue length does an incoming req see
system.mem_ctrls.wrQLenPdf::63                      0                       # What write queue length does an incoming req see
system.mem_ctrls.bytesPerActivate::samples        98332                       # Bytes accessed per row activation
system.mem_ctrls.bytesPerActivate::mean    124.580401                       # Bytes accessed per row activation
system.mem_ctrls.bytesPerActivate::gmean   107.294117                       # Bytes accessed per row activation
system.mem_ctrls.bytesPerActivate::stdev    74.617517                       # Bytes accessed per row activation
system.mem_ctrls.bytesPerActivate::0-127        44779     45.54%     45.54% # Bytes accessed per row activation
system.mem_ctrls.bytesPerActivate::128-255        43417     44.15%     89.69% # Bytes accessed per row activation
system.mem_ctrls.bytesPerActivate::256-383         8868      9.02%     98.71% # Bytes accessed per row activation
system.mem_ctrls.bytesPerActivate::384-511         1119      1.14%     99.85% # Bytes accessed per row activation
system.mem_ctrls.bytesPerActivate::512-639          124      0.13%     99.97% # Bytes accessed per row activation
system.mem_ctrls.bytesPerActivate::640-767           13      0.01%     99.99% # Bytes accessed per row activation
system.mem_ctrls.bytesPerActivate::768-895            5      0.01%     99.99% # Bytes accessed per row activation
system.mem_ctrls.bytesPerActivate::896-1023            4      0.00%    100.00% # Bytes accessed per row activation
system.mem_ctrls.bytesPerActivate::1024-1151            3      0.00%    100.00% # Bytes accessed per row activation
system.mem_ctrls.bytesPerActivate::total        98332                       # Bytes accessed per row activation
system.mem_ctrls.rdPerTurnAround::samples           18                       # Reads before turning the bus around for writes
system.mem_ctrls.rdPerTurnAround::mean   10739.833333                       # Reads before turning the bus around for writes
system.mem_ctrls.rdPerTurnAround::gmean  10134.575246                       # Reads before turning the bus around for writes
system.mem_ctrls.rdPerTurnAround::stdev   3420.258663                       # Reads before turning the bus around for writes
system.mem_ctrls.rdPerTurnAround::3584-4095            1      5.56%      5.56% # Reads before turning the bus around for writes
system.mem_ctrls.rdPerTurnAround::5632-6143            1      5.56%     11.11% # Reads before turning the bus around for writes
system.mem_ctrls.rdPerTurnAround::7168-7679            1      5.56%     16.67% # Reads before turning the bus around for writes
system.mem_ctrls.rdPerTurnAround::7680-8191            2     11.11%     27.78% # Reads before turning the bus around for writes
system.mem_ctrls.rdPerTurnAround::8704-9215            2     11.11%     38.89% # Reads before turning the bus around for writes
system.mem_ctrls.rdPerTurnAround::9216-9727            1      5.56%     44.44% # Reads before turning the bus around for writes
system.mem_ctrls.rdPerTurnAround::9728-10239            1      5.56%     50.00% # Reads before turning the bus around for writes
system.mem_ctrls.rdPerTurnAround::11264-11775            1      5.56%     55.56% # Reads before turning the bus around for writes
system.mem_ctrls.rdPerTurnAround::12288-12799            1      5.56%     61.11% # Reads before turning the bus around for writes
system.mem_ctrls.rdPerTurnAround::12800-13311            1      5.56%     66.67% # Reads before turning the bus around for writes
system.mem_ctrls.rdPerTurnAround::13312-13823            1      5.56%     72.22% # Reads before turning the bus around for writes
system.mem_ctrls.rdPerTurnAround::13824-14335            2     11.11%     83.33% # Reads before turning the bus around for writes
system.mem_ctrls.rdPerTurnAround::14848-15359            3     16.67%    100.00% # Reads before turning the bus around for writes
system.mem_ctrls.rdPerTurnAround::total            18                       # Reads before turning the bus around for writes
system.mem_ctrls.wrPerTurnAround::samples           18                       # Writes before turning the bus around for reads
system.mem_ctrls.wrPerTurnAround::mean             16                       # Writes before turning the bus around for reads
system.mem_ctrls.wrPerTurnAround::gmean     16.000000                       # Writes before turning the bus around for reads
system.mem_ctrls.wrPerTurnAround::16               18    100.00%    100.00% # Writes before turning the bus around for reads
system.mem_ctrls.wrPerTurnAround::total            18                       # Writes before turning the bus around for reads
system.mem_ctrls.totQLat                   4650091750                       # Total ticks spent queuing
system.mem_ctrls.totMemAccLat              8233441750                       # Total ticks spent from burst creation until serviced by the DRAM
system.mem_ctrls.totBusLat                  955560000                       # Total ticks spent in databus transfers
system.mem_ctrls.avgQLat                     24331.76                       # Average queueing delay per DRAM burst
system.mem_ctrls.avgBusLat                    5000.00                       # Average bus latency per DRAM burst
system.mem_ctrls.avgMemAccLat                43081.76                       # Average memory access latency per DRAM burst
system.mem_ctrls.avgRdBW                       801.13                       # Average DRAM read bandwidth in MiByte/s
system.mem_ctrls.avgWrBW                         1.21                       # Average achieved write bandwidth in MiByte/s
system.mem_ctrls.avgRdBWSys                    801.24                       # Average system read bandwidth in MiByte/s
system.mem_ctrls.avgWrBWSys                      1.19                       # Average system write bandwidth in MiByte/s
system.mem_ctrls.peakBW                      12800.00                       # Theoretical peak bandwidth in MiByte/s
system.mem_ctrls.busUtil                         6.27                       # Data bus utilization in percentage
system.mem_ctrls.busUtilRead                     6.26                       # Data bus utilization in percentage for reads
system.mem_ctrls.busUtilWrite                    0.01                       # Data bus utilization in percentage for writes
system.mem_ctrls.avgRdQLen                       1.31                       # Average read queue length when enqueuing
system.mem_ctrls.avgWrQLen                      25.29                       # Average write queue length when enqueuing
system.mem_ctrls.readRowHits                    92825                       # Number of row buffer hits during reads
system.mem_ctrls.writeRowHits                     244                       # Number of row buffer hits during writes
system.mem_ctrls.readRowHitRate                 48.57                       # Row buffer hit rate for reads
system.mem_ctrls.writeRowHitRate                86.22                       # Row buffer hit rate for writes
system.mem_ctrls.avgGap                      79758.57                       # Average gap between requests
system.mem_ctrls.pageHitRate                    48.63                       # Row buffer hit rate, read and write combined
system.mem_ctrls_0.actEnergy                349988520                       # Energy for activate commands per rank (pJ)
system.mem_ctrls_0.preEnergy                186027105                       # Energy for precharge commands per rank (pJ)
system.mem_ctrls_0.readEnergy               679142520                       # Energy for read commands per rank (pJ)
system.mem_ctrls_0.writeEnergy                 412380                       # Energy for write commands per rank (pJ)
system.mem_ctrls_0.refreshEnergy         1205309040.000000                       # Energy for refresh commands per rank (pJ)
system.mem_ctrls_0.actBackEnergy           1612391490                       # Energy for active background per rank (pJ)
system.mem_ctrls_0.preBackEnergy             24608640                       # Energy for precharge background per rank (pJ)
system.mem_ctrls_0.actPowerDownEnergy      5116730970                       # Energy for active power-down per rank (pJ)
system.mem_ctrls_0.prePowerDownEnergy       171422400                       # Energy for precharge power-down per rank (pJ)
system.mem_ctrls_0.selfRefreshEnergy                0                       # Energy for self refresh per rank (pJ)
system.mem_ctrls_0.totalEnergy             9346033065                       # Total energy per rank (pJ)
system.mem_ctrls_0.averagePower            612.158407                       # Core power per rank (mW)
system.mem_ctrls_0.totalIdleTime          11667626500                       # Total Idle time Per DRAM Rank
system.mem_ctrls_0.memoryStateTime::IDLE      9738000                       # Time in different power states
system.mem_ctrls_0.memoryStateTime::REF     509860000                       # Time in different power states
system.mem_ctrls_0.memoryStateTime::SREF            0                       # Time in different power states
system.mem_ctrls_0.memoryStateTime::PRE_PDN    446635500                       # Time in different power states
system.mem_ctrls_0.memoryStateTime::ACT    3080119625                       # Time in different power states
system.mem_ctrls_0.memoryStateTime::ACT_PDN  11220991000                       # Time in different power states
system.mem_ctrls_1.actEnergy                352094820                       # Energy for activate commands per rank (pJ)
system.mem_ctrls_1.preEnergy                187142835                       # Energy for precharge commands per rank (pJ)
system.mem_ctrls_1.readEnergy               685397160                       # Energy for read commands per rank (pJ)
system.mem_ctrls_1.writeEnergy                1090980                       # Energy for write commands per rank (pJ)
system.mem_ctrls_1.refreshEnergy         1205309040.000000                       # Energy for refresh commands per rank (pJ)
system.mem_ctrls_1.actBackEnergy           1622540910                       # Energy for active background per rank (pJ)
system.mem_ctrls_1.preBackEnergy             24545760                       # Energy for precharge background per rank (pJ)
system.mem_ctrls_1.actPowerDownEnergy      5107120200                       # Energy for active power-down per rank (pJ)
system.mem_ctrls_1.prePowerDownEnergy       171031680                       # Energy for precharge power-down per rank (pJ)
system.mem_ctrls_1.selfRefreshEnergy                0                       # Energy for self refresh per rank (pJ)
system.mem_ctrls_1.totalEnergy             9356273385                       # Total energy per rank (pJ)
system.mem_ctrls_1.averagePower            612.829141                       # Core power per rank (mW)
system.mem_ctrls_1.totalIdleTime          11645481000                       # Total Idle time Per DRAM Rank
system.mem_ctrls_1.memoryStateTime::IDLE      9630000                       # Time in different power states
system.mem_ctrls_1.memoryStateTime::REF     509860000                       # Time in different power states
system.mem_ctrls_1.memoryStateTime::SREF            0                       # Time in different power states
system.mem_ctrls_1.memoryStateTime::PRE_PDN    445202500                       # Time in different power states
system.mem_ctrls_1.memoryStateTime::ACT    3102264000                       # Time in different power states
system.mem_ctrls_1.memoryStateTime::ACT_PDN  11200387625                       # Time in different power states
system.pwrStateResidencyTicks::UNDEFINED  15267344125                       # Cumulative time (in ticks) in various power states
system.cpu0.branchPred.lookups                1643974                       # Number of BP lookups
system.cpu0.branchPred.condPredicted          1643974                       # Number of conditional branches predicted
system.cpu0.branchPred.condIncorrect            67107                       # Number of conditional branches incorrect
system.cpu0.branchPred.BTBLookups             1297628                       # Number of BTB lookups
system.cpu0.branchPred.BTBHits                      0                       # Number of BTB hits
system.cpu0.branchPred.BTBCorrect                   0                       # Number of correct BTB predictions (this stat may not work properly.
system.cpu0.branchPred.BTBHitPct             0.000000                       # BTB Hit Percentage
system.cpu0.branchPred.usedRAS                  42396                       # Number of times the RAS was used to get a target.
system.cpu0.branchPred.RASInCorrect              6982                       # Number of incorrect RAS predictions.
system.cpu0.branchPred.indirectLookups        1297628                       # Number of indirect predictor lookups.
system.cpu0.branchPred.indirectHits            704338                       # Number of indirect target hits.
system.cpu0.branchPred.indirectMisses          593290                       # Number of indirect misses.
system.cpu0.branchPredindirectMispredicted        19827                       # Number of mispredicted indirect branches.
system.cpu_voltage_domain.voltage                   1                       # Voltage in Volts
system.cpu_clk_domain.clock                       500                       # Clock period in ticks
system.cpu0.dtb.walker.pwrStateResidencyTicks::UNDEFINED  15267344125                       # Cumulative time (in ticks) in various power states
system.cpu0.dtb.rdAccesses                     771792                       # TLB accesses on read requests
system.cpu0.dtb.wrAccesses                      45518                       # TLB accesses on write requests
system.cpu0.dtb.rdMisses                       159233                       # TLB misses on read requests
system.cpu0.dtb.wrMisses                          751                       # TLB misses on write requests
system.cpu0.apic_clk_domain.clock                8000                       # Clock period in ticks
system.cpu0.interrupts.pwrStateResidencyTicks::UNDEFINED  15267344125                       # Cumulative time (in ticks) in various power states
system.cpu0.itb.walker.pwrStateResidencyTicks::UNDEFINED  15267344125                       # Cumulative time (in ticks) in various power states
system.cpu0.itb.rdAccesses                          0                       # TLB accesses on read requests
system.cpu0.itb.wrAccesses                    1376911                       # TLB accesses on write requests
system.cpu0.itb.rdMisses                            0                       # TLB misses on read requests
system.cpu0.itb.wrMisses                         6572                       # TLB misses on write requests
system.cpu0.workload.numSyscalls                    0                       # Number of system calls
system.cpu0.pwrStateResidencyTicks::ON    15267344125                       # Cumulative time (in ticks) in various power states
system.cpu0.numCycles                        30534688                       # number of cpu cycles simulated
system.cpu0.numWorkItemsStarted                     0                       # number of work items this cpu started
system.cpu0.numWorkItemsCompleted                   0                       # number of work items this cpu completed
system.cpu0.fetch.icacheStallCycles           1404822                       # Number of cycles fetch is stalled on an Icache miss
system.cpu0.fetch.Insts                       4737563                       # Number of instructions fetch has processed
system.cpu0.fetch.Branches                    1643974                       # Number of branches that fetch encountered
system.cpu0.fetch.predictedBranches            746734                       # Number of branches that fetch has predicted taken
system.cpu0.fetch.Cycles                     28897727                       # Number of cycles fetch has run and was not squashing or blocked
system.cpu0.fetch.SquashCycles                 138650                       # Number of cycles fetch has spent squashing
system.cpu0.fetch.TlbCycles                      2684                       # Number of cycles fetch has spent waiting for tlb
system.cpu0.fetch.MiscStallCycles                1538                       # Number of cycles fetch has spent waiting on interrupts, or bad addresses, or out of MSHRs
system.cpu0.fetch.PendingTrapStallCycles        64468                       # Number of stall cycles due to pending traps
system.cpu0.fetch.CacheLines                  1370339                       # Number of cache lines fetched
system.cpu0.fetch.IcacheSquashes                 6958                       # Number of outstanding Icache misses that were squashed
system.cpu0.fetch.ItlbSquashes                      7                       # Number of outstanding ITLB misses that were squashed
system.cpu0.fetch.rateDist::samples          30440564                       # Number of instructions fetched each cycle (Total)
system.cpu0.fetch.rateDist::mean             0.312904                       # Number of instructions fetched each cycle (Total)
system.cpu0.fetch.rateDist::stdev            1.406460                       # Number of instructions fetched each cycle (Total)
system.cpu0.fetch.rateDist::underflows              0      0.00%      0.00% # Number of instructions fetched each cycle (Total)
system.cpu0.fetch.rateDist::0                28586098     93.91%     93.91% # Number of instructions fetched each cycle (Total)
system.cpu0.fetch.rateDist::1                   21513      0.07%     93.98% # Number of instructions fetched each cycle (Total)
system.cpu0.fetch.rateDist::2                  688596      2.26%     96.24% # Number of instructions fetched each cycle (Total)
system.cpu0.fetch.rateDist::3                   24520      0.08%     96.32% # Number of instructions fetched each cycle (Total)
system.cpu0.fetch.rateDist::4                  130702      0.43%     96.75% # Number of instructions fetched each cycle (Total)
system.cpu0.fetch.rateDist::5                   63194      0.21%     96.96% # Number of instructions fetched each cycle (Total)
system.cpu0.fetch.rateDist::6                   85944      0.28%     97.24% # Number of instructions fetched each cycle (Total)
system.cpu0.fetch.rateDist::7                   21711      0.07%     97.31% # Number of instructions fetched each cycle (Total)
system.cpu0.fetch.rateDist::8                  818286      2.69%    100.00% # Number of instructions fetched each cycle (Total)
system.cpu0.fetch.rateDist::overflows               0      0.00%    100.00% # Number of instructions fetched each cycle (Total)
system.cpu0.fetch.rateDist::min_value               0                       # Number of instructions fetched each cycle (Total)
system.cpu0.fetch.rateDist::max_value               8                       # Number of instructions fetched each cycle (Total)
system.cpu0.fetch.rateDist::total            30440564                       # Number of instructions fetched each cycle (Total)
system.cpu0.fetch.branchRate                 0.053840                       # Number of branch fetches per cycle
system.cpu0.fetch.rate                       0.155153                       # Number of inst fetches per cycle
system.cpu0.decode.IdleCycles                  693526                       # Number of cycles decode is idle
system.cpu0.decode.BlockedCycles             28473931                       # Number of cycles decode is blocked
system.cpu0.decode.RunCycles                   880105                       # Number of cycles decode is running
system.cpu0.decode.UnblockCycles               323677                       # Number of cycles decode is unblocking
system.cpu0.decode.SquashCycles                 69325                       # Number of cycles decode is squashing
system.cpu0.decode.DecodedInsts               7790630                       # Number of instructions handled by decode
system.cpu0.rename.SquashCycles                 69325                       # Number of cycles rename is squashing
system.cpu0.rename.IdleCycles                  790993                       # Number of cycles rename is idle
system.cpu0.rename.BlockCycles               27111529                       # Number of cycles rename is blocking
system.cpu0.rename.serializeStallCycles          7231                       # count of cycles rename stalled for serializing inst
system.cpu0.rename.RunCycles                  1026444                       # Number of cycles rename is running
system.cpu0.rename.UnblockCycles              1435042                       # Number of cycles rename is unblocking
system.cpu0.rename.RenamedInsts               7479290                       # Number of instructions processed by rename
system.cpu0.rename.ROBFullEvents                78146                       # Number of times rename has blocked due to ROB full
system.cpu0.rename.IQFullEvents               1087609                       # Number of times rename has blocked due to IQ full
system.cpu0.rename.LQFullEvents                303796                       # Number of times rename has blocked due to LQ full
system.cpu0.rename.SQFullEvents                   798                       # Number of times rename has blocked due to SQ full
system.cpu0.rename.RenamedOperands            8916332                       # Number of destination operands rename has renamed
system.cpu0.rename.RenameLookups             20873063                       # Number of register rename lookups that rename has made
system.cpu0.rename.int_rename_lookups         9746308                       # Number of integer rename lookups
system.cpu0.rename.fp_rename_lookups            34453                       # Number of floating rename lookups
system.cpu0.rename.CommittedMaps              3096922                       # Number of HB maps that are committed
system.cpu0.rename.UndoneMaps                 5819336                       # Number of HB maps that are undone due to squashing
system.cpu0.rename.serializingInsts               268                       # count of serializing insts renamed
system.cpu0.rename.tempSerializingInsts           305                       # count of temporary serializing insts renamed
system.cpu0.rename.skidInsts                  2078866                       # count of insts added to the skid buffer
system.cpu0.memDep0.insertedLoads             1375110                       # Number of loads inserted to the mem dependence unit.
system.cpu0.memDep0.insertedStores              66520                       # Number of stores inserted to the mem dependence unit.
system.cpu0.memDep0.conflictingLoads             2819                       # Number of conflicting loads.
system.cpu0.memDep0.conflictingStores            3295                       # Number of conflicting stores.
system.cpu0.iq.iqInstsAdded                   7129057                       # Number of instructions added to the IQ (excludes non-spec)
system.cpu0.iq.iqNonSpecInstsAdded               3815                       # Number of non-speculative instructions added to the IQ
system.cpu0.iq.iqInstsIssued                  5065959                       # Number of instructions issued
system.cpu0.iq.iqSquashedInstsIssued             5232                       # Number of squashed instructions issued
system.cpu0.iq.iqSquashedInstsExamined        4548694                       # Number of squashed instructions iterated over during squash; mainly for profiling
system.cpu0.iq.iqSquashedOperandsExamined      9534172                       # Number of squashed operands that are examined and possibly removed from graph
system.cpu0.iq.iqSquashedNonSpecRemoved          3815                       # Number of squashed non-spec instructions that were removed
system.cpu0.iq.issued_per_cycle::samples     30440564                       # Number of insts issued each cycle
system.cpu0.iq.issued_per_cycle::mean        0.166421                       # Number of insts issued each cycle
system.cpu0.iq.issued_per_cycle::stdev       0.737276                       # Number of insts issued each cycle
system.cpu0.iq.issued_per_cycle::underflows            0      0.00%      0.00% # Number of insts issued each cycle
system.cpu0.iq.issued_per_cycle::0           28330553     93.07%     93.07% # Number of insts issued each cycle
system.cpu0.iq.issued_per_cycle::1             851565      2.80%     95.87% # Number of insts issued each cycle
system.cpu0.iq.issued_per_cycle::2             446529      1.47%     97.33% # Number of insts issued each cycle
system.cpu0.iq.issued_per_cycle::3             298381      0.98%     98.31% # Number of insts issued each cycle
system.cpu0.iq.issued_per_cycle::4             314907      1.03%     99.35% # Number of insts issued each cycle
system.cpu0.iq.issued_per_cycle::5              84792      0.28%     99.63% # Number of insts issued each cycle
system.cpu0.iq.issued_per_cycle::6              72100      0.24%     99.86% # Number of insts issued each cycle
system.cpu0.iq.issued_per_cycle::7              23891      0.08%     99.94% # Number of insts issued each cycle
system.cpu0.iq.issued_per_cycle::8              17846      0.06%    100.00% # Number of insts issued each cycle
system.cpu0.iq.issued_per_cycle::overflows            0      0.00%    100.00% # Number of insts issued each cycle
system.cpu0.iq.issued_per_cycle::min_value            0                       # Number of insts issued each cycle
system.cpu0.iq.issued_per_cycle::max_value            8                       # Number of insts issued each cycle
system.cpu0.iq.issued_per_cycle::total       30440564                       # Number of insts issued each cycle
system.cpu0.iq.fu_full::No_OpClass                  0      0.00%      0.00% # attempts to use FU when none available
system.cpu0.iq.fu_full::IntAlu                   8916     65.62%     65.62% # attempts to use FU when none available
system.cpu0.iq.fu_full::IntMult                     0      0.00%     65.62% # attempts to use FU when none available
system.cpu0.iq.fu_full::IntDiv                      0      0.00%     65.62% # attempts to use FU when none available
system.cpu0.iq.fu_full::FloatAdd                  912      6.71%     72.33% # attempts to use FU when none available
system.cpu0.iq.fu_full::FloatCmp                    0      0.00%     72.33% # attempts to use FU when none available
system.cpu0.iq.fu_full::FloatCvt                    0      0.00%     72.33% # attempts to use FU when none available
system.cpu0.iq.fu_full::FloatMult                   0      0.00%     72.33% # attempts to use FU when none available
system.cpu0.iq.fu_full::FloatMultAcc                0      0.00%     72.33% # attempts to use FU when none available
system.cpu0.iq.fu_full::FloatDiv                    0      0.00%     72.33% # attempts to use FU when none available
system.cpu0.iq.fu_full::FloatMisc                   0      0.00%     72.33% # attempts to use FU when none available
system.cpu0.iq.fu_full::FloatSqrt                   0      0.00%     72.33% # attempts to use FU when none available
system.cpu0.iq.fu_full::SimdAdd                     0      0.00%     72.33% # attempts to use FU when none available
system.cpu0.iq.fu_full::SimdAddAcc                  0      0.00%     72.33% # attempts to use FU when none available
system.cpu0.iq.fu_full::SimdAlu                     0      0.00%     72.33% # attempts to use FU when none available
system.cpu0.iq.fu_full::SimdCmp                     0      0.00%     72.33% # attempts to use FU when none available
system.cpu0.iq.fu_full::SimdCvt                     0      0.00%     72.33% # attempts to use FU when none available
system.cpu0.iq.fu_full::SimdMisc                    0      0.00%     72.33% # attempts to use FU when none available
system.cpu0.iq.fu_full::SimdMult                    0      0.00%     72.33% # attempts to use FU when none available
system.cpu0.iq.fu_full::SimdMultAcc                 0      0.00%     72.33% # attempts to use FU when none available
system.cpu0.iq.fu_full::SimdShift                   0      0.00%     72.33% # attempts to use FU when none available
system.cpu0.iq.fu_full::SimdShiftAcc                0      0.00%     72.33% # attempts to use FU when none available
system.cpu0.iq.fu_full::SimdSqrt                    0      0.00%     72.33% # attempts to use FU when none available
system.cpu0.iq.fu_full::SimdFloatAdd                0      0.00%     72.33% # attempts to use FU when none available
system.cpu0.iq.fu_full::SimdFloatAlu                0      0.00%     72.33% # attempts to use FU when none available
system.cpu0.iq.fu_full::SimdFloatCmp                0      0.00%     72.33% # attempts to use FU when none available
system.cpu0.iq.fu_full::SimdFloatCvt                0      0.00%     72.33% # attempts to use FU when none available
system.cpu0.iq.fu_full::SimdFloatDiv                0      0.00%     72.33% # attempts to use FU when none available
system.cpu0.iq.fu_full::SimdFloatMisc               0      0.00%     72.33% # attempts to use FU when none available
system.cpu0.iq.fu_full::SimdFloatMult               0      0.00%     72.33% # attempts to use FU when none available
system.cpu0.iq.fu_full::SimdFloatMultAcc            0      0.00%     72.33% # attempts to use FU when none available
system.cpu0.iq.fu_full::SimdFloatSqrt               0      0.00%     72.33% # attempts to use FU when none available
system.cpu0.iq.fu_full::MemRead                  3320     24.43%     96.76% # attempts to use FU when none available
system.cpu0.iq.fu_full::MemWrite                  256      1.88%     98.65% # attempts to use FU when none available
system.cpu0.iq.fu_full::FloatMemRead              127      0.93%     99.58% # attempts to use FU when none available
system.cpu0.iq.fu_full::FloatMemWrite              57      0.42%    100.00% # attempts to use FU when none available
system.cpu0.iq.fu_full::IprAccess                   0      0.00%    100.00% # attempts to use FU when none available
system.cpu0.iq.fu_full::InstPrefetch                0      0.00%    100.00% # attempts to use FU when none available
system.cpu0.iq.FU_type_0::No_OpClass            16503      0.33%      0.33% # Type of FU issued
system.cpu0.iq.FU_type_0::IntAlu              4174375     82.40%     82.73% # Type of FU issued
system.cpu0.iq.FU_type_0::IntMult                 821      0.02%     82.74% # Type of FU issued
system.cpu0.iq.FU_type_0::IntDiv                 7425      0.15%     82.89% # Type of FU issued
system.cpu0.iq.FU_type_0::FloatAdd              11762      0.23%     83.12% # Type of FU issued
system.cpu0.iq.FU_type_0::FloatCmp                  0      0.00%     83.12% # Type of FU issued
system.cpu0.iq.FU_type_0::FloatCvt                  0      0.00%     83.12% # Type of FU issued
system.cpu0.iq.FU_type_0::FloatMult                 0      0.00%     83.12% # Type of FU issued
system.cpu0.iq.FU_type_0::FloatMultAcc              0      0.00%     83.12% # Type of FU issued
system.cpu0.iq.FU_type_0::FloatDiv                  0      0.00%     83.12% # Type of FU issued
system.cpu0.iq.FU_type_0::FloatMisc                 0      0.00%     83.12% # Type of FU issued
system.cpu0.iq.FU_type_0::FloatSqrt                 0      0.00%     83.12% # Type of FU issued
system.cpu0.iq.FU_type_0::SimdAdd                   0      0.00%     83.12% # Type of FU issued
system.cpu0.iq.FU_type_0::SimdAddAcc                0      0.00%     83.12% # Type of FU issued
system.cpu0.iq.FU_type_0::SimdAlu                   0      0.00%     83.12% # Type of FU issued
system.cpu0.iq.FU_type_0::SimdCmp                   0      0.00%     83.12% # Type of FU issued
system.cpu0.iq.FU_type_0::SimdCvt                   0      0.00%     83.12% # Type of FU issued
system.cpu0.iq.FU_type_0::SimdMisc                  0      0.00%     83.12% # Type of FU issued
system.cpu0.iq.FU_type_0::SimdMult                  0      0.00%     83.12% # Type of FU issued
system.cpu0.iq.FU_type_0::SimdMultAcc               0      0.00%     83.12% # Type of FU issued
system.cpu0.iq.FU_type_0::SimdShift                 0      0.00%     83.12% # Type of FU issued
system.cpu0.iq.FU_type_0::SimdShiftAcc              0      0.00%     83.12% # Type of FU issued
system.cpu0.iq.FU_type_0::SimdSqrt                  0      0.00%     83.12% # Type of FU issued
system.cpu0.iq.FU_type_0::SimdFloatAdd              0      0.00%     83.12% # Type of FU issued
system.cpu0.iq.FU_type_0::SimdFloatAlu              0      0.00%     83.12% # Type of FU issued
system.cpu0.iq.FU_type_0::SimdFloatCmp              0      0.00%     83.12% # Type of FU issued
system.cpu0.iq.FU_type_0::SimdFloatCvt              0      0.00%     83.12% # Type of FU issued
system.cpu0.iq.FU_type_0::SimdFloatDiv              0      0.00%     83.12% # Type of FU issued
system.cpu0.iq.FU_type_0::SimdFloatMisc             0      0.00%     83.12% # Type of FU issued
system.cpu0.iq.FU_type_0::SimdFloatMult             0      0.00%     83.12% # Type of FU issued
system.cpu0.iq.FU_type_0::SimdFloatMultAcc            0      0.00%     83.12% # Type of FU issued
system.cpu0.iq.FU_type_0::SimdFloatSqrt             0      0.00%     83.12% # Type of FU issued
system.cpu0.iq.FU_type_0::MemRead              803661     15.86%     98.99% # Type of FU issued
system.cpu0.iq.FU_type_0::MemWrite              48930      0.97%     99.95% # Type of FU issued
system.cpu0.iq.FU_type_0::FloatMemRead           2266      0.04%    100.00% # Type of FU issued
system.cpu0.iq.FU_type_0::FloatMemWrite           216      0.00%    100.00% # Type of FU issued
system.cpu0.iq.FU_type_0::IprAccess                 0      0.00%    100.00% # Type of FU issued
system.cpu0.iq.FU_type_0::InstPrefetch              0      0.00%    100.00% # Type of FU issued
system.cpu0.iq.FU_type_0::total               5065959                       # Type of FU issued
system.cpu0.iq.rate                          0.165908                       # Inst issue rate
system.cpu0.iq.fu_busy_cnt                      13588                       # FU busy when requested
system.cpu0.iq.fu_busy_rate                  0.002682                       # FU busy rate (busy events/executed inst)
system.cpu0.iq.int_inst_queue_reads          40561396                       # Number of integer instruction queue reads
system.cpu0.iq.int_inst_queue_writes         11650208                       # Number of integer instruction queue writes
system.cpu0.iq.int_inst_queue_wakeup_accesses      4865022                       # Number of integer instruction queue wakeup accesses
system.cpu0.iq.fp_inst_queue_reads              29906                       # Number of floating instruction queue reads
system.cpu0.iq.fp_inst_queue_writes             31362                       # Number of floating instruction queue writes
system.cpu0.iq.fp_inst_queue_wakeup_accesses        12717                       # Number of floating instruction queue wakeup accesses
system.cpu0.iq.vec_inst_queue_reads                 0                       # Number of vector instruction queue reads
system.cpu0.iq.vec_inst_queue_writes                0                       # Number of vector instruction queue writes
system.cpu0.iq.vec_inst_queue_wakeup_accesses            0                       # Number of vector instruction queue wakeup accesses
system.cpu0.iq.int_alu_accesses               5047685                       # Number of integer alu accesses
system.cpu0.iq.fp_alu_accesses                  15359                       # Number of floating point alu accesses
system.cpu0.iq.vec_alu_accesses                     0                       # Number of vector alu accesses
system.cpu0.iew.lsq.thread0.forwLoads            3413                       # Number of loads that had data forwarded from stores
system.cpu0.iew.lsq.thread0.invAddrLoads            0                       # Number of loads ignored due to an invalid address
system.cpu0.iew.lsq.thread0.squashedLoads       877347                       # Number of loads squashed
system.cpu0.iew.lsq.thread0.ignoredResponses          130                       # Number of memory responses ignored because the instruction is squashed
system.cpu0.iew.lsq.thread0.memOrderViolation            4                       # Number of memory ordering violations
system.cpu0.iew.lsq.thread0.squashedStores        45583                       # Number of stores squashed
system.cpu0.iew.lsq.thread0.invAddrSwpfs            0                       # Number of software prefetches ignored due to an invalid address
system.cpu0.iew.lsq.thread0.blockedLoads            0                       # Number of blocked loads due to partial load-store forwarding
system.cpu0.iew.lsq.thread0.rescheduledLoads           22                       # Number of loads that were rescheduled
system.cpu0.iew.lsq.thread0.cacheBlocked         1738                       # Number of times an access to memory failed due to the cache being blocked
system.cpu0.iew.iewIdleCycles                       0                       # Number of cycles IEW is idle
system.cpu0.iew.iewSquashCycles                 69325                       # Number of cycles IEW is squashing
system.cpu0.iew.iewBlockCycles               25158267                       # Number of cycles IEW is blocking
system.cpu0.iew.iewUnblockCycles               285413                       # Number of cycles IEW is unblocking
system.cpu0.iew.iewDispatchedInsts            7132872                       # Number of instructions dispatched to IQ
system.cpu0.iew.iewDispSquashedInsts             4187                       # Number of squashed instructions skipped by dispatch
system.cpu0.iew.iewDispLoadInsts              1375110                       # Number of dispatched load instructions
system.cpu0.iew.iewDispStoreInsts               66520                       # Number of dispatched store instructions
system.cpu0.iew.iewDispNonSpecInsts              1433                       # Number of dispatched non-speculative instructions
system.cpu0.iew.iewIQFullEvents                 20081                       # Number of times the IQ has become full, causing a stall
system.cpu0.iew.iewLSQFullEvents                71250                       # Number of times the LSQ has become full, causing a stall
system.cpu0.iew.memOrderViolationEvents             4                       # Number of memory order violations
system.cpu0.iew.predictedTakenIncorrect         37526                       # Number of branches that were predicted taken incorrectly
system.cpu0.iew.predictedNotTakenIncorrect        38581                       # Number of branches that were predicted not taken incorrectly
system.cpu0.iew.branchMispredicts               76107                       # Number of branch mispredicts detected at execute
system.cpu0.iew.iewExecutedInsts              4981401                       # Number of executed instructions
system.cpu0.iew.iewExecLoadInsts               771611                       # Number of load instructions executed
system.cpu0.iew.iewExecSquashedInsts            84558                       # Number of squashed instructions skipped in execute
system.cpu0.iew.exec_swp                            0                       # number of swp insts executed
system.cpu0.iew.exec_nop                            0                       # number of nop insts executed
system.cpu0.iew.exec_refs                      817123                       # number of memory reference insts executed
system.cpu0.iew.exec_branches                  597208                       # Number of branches executed
system.cpu0.iew.exec_stores                     45512                       # Number of stores executed
system.cpu0.iew.exec_rate                    0.163139                       # Inst execution rate
system.cpu0.iew.wb_sent                       4893343                       # cumulative count of insts sent to commit
system.cpu0.iew.wb_count                      4877739                       # cumulative count of insts written-back
system.cpu0.iew.wb_producers                  3602106                       # num instructions producing a value
system.cpu0.iew.wb_consumers                  5651410                       # num instructions consuming a value
system.cpu0.iew.wb_rate                      0.159744                       # insts written-back per cycle
system.cpu0.iew.wb_fanout                    0.637382                       # average fanout of values written-back
system.cpu0.commit.commitSquashedInsts        4549547                       # The number of squashed insts skipped by commit
system.cpu0.commit.branchMispredicts            69322                       # The number of times a branch was mispredicted
system.cpu0.commit.committed_per_cycle::samples     29798896                       # Number of insts commited each cycle
system.cpu0.commit.committed_per_cycle::mean     0.086718                       # Number of insts commited each cycle
system.cpu0.commit.committed_per_cycle::stdev     0.534086                       # Number of insts commited each cycle
system.cpu0.commit.committed_per_cycle::underflows            0      0.00%      0.00% # Number of insts commited each cycle
system.cpu0.commit.committed_per_cycle::0     28655264     96.16%     96.16% # Number of insts commited each cycle
system.cpu0.commit.committed_per_cycle::1       535133      1.80%     97.96% # Number of insts commited each cycle
system.cpu0.commit.committed_per_cycle::2       123528      0.41%     98.37% # Number of insts commited each cycle
system.cpu0.commit.committed_per_cycle::3       343778      1.15%     99.53% # Number of insts commited each cycle
system.cpu0.commit.committed_per_cycle::4        61922      0.21%     99.73% # Number of insts commited each cycle
system.cpu0.commit.committed_per_cycle::5        32755      0.11%     99.84% # Number of insts commited each cycle
system.cpu0.commit.committed_per_cycle::6         4792      0.02%     99.86% # Number of insts commited each cycle
system.cpu0.commit.committed_per_cycle::7         3438      0.01%     99.87% # Number of insts commited each cycle
system.cpu0.commit.committed_per_cycle::8        38286      0.13%    100.00% # Number of insts commited each cycle
system.cpu0.commit.committed_per_cycle::overflows            0      0.00%    100.00% # Number of insts commited each cycle
system.cpu0.commit.committed_per_cycle::min_value            0                       # Number of insts commited each cycle
system.cpu0.commit.committed_per_cycle::max_value            8                       # Number of insts commited each cycle
system.cpu0.commit.committed_per_cycle::total     29798896                       # Number of insts commited each cycle
system.cpu0.commit.committedInsts             1293104                       # Number of instructions committed
system.cpu0.commit.committedOps               2584092                       # Number of ops (including micro ops) committed
system.cpu0.commit.swp_count                        0                       # Number of s/w prefetches committed
system.cpu0.commit.refs                        518687                       # Number of memory references committed
system.cpu0.commit.loads                       497771                       # Number of loads committed
system.cpu0.commit.membars                          0                       # Number of memory barriers committed
system.cpu0.commit.branches                    473286                       # Number of branches committed
system.cpu0.commit.vec_insts                        0                       # Number of committed Vector instructions.
system.cpu0.commit.fp_insts                      8396                       # Number of committed floating point instructions.
system.cpu0.commit.int_insts                  2575602                       # Number of committed integer instructions.
system.cpu0.commit.function_calls                3700                       # Number of function calls committed.
system.cpu0.commit.op_class_0::No_OpClass         2534      0.10%      0.10% # Class of committed instruction
system.cpu0.commit.op_class_0::IntAlu         2049407     79.31%     79.41% # Class of committed instruction
system.cpu0.commit.op_class_0::IntMult            148      0.01%     79.41% # Class of committed instruction
system.cpu0.commit.op_class_0::IntDiv            6140      0.24%     79.65% # Class of committed instruction
system.cpu0.commit.op_class_0::FloatAdd          7176      0.28%     79.93% # Class of committed instruction
system.cpu0.commit.op_class_0::FloatCmp             0      0.00%     79.93% # Class of committed instruction
system.cpu0.commit.op_class_0::FloatCvt             0      0.00%     79.93% # Class of committed instruction
system.cpu0.commit.op_class_0::FloatMult            0      0.00%     79.93% # Class of committed instruction
system.cpu0.commit.op_class_0::FloatMultAcc            0      0.00%     79.93% # Class of committed instruction
system.cpu0.commit.op_class_0::FloatDiv             0      0.00%     79.93% # Class of committed instruction
system.cpu0.commit.op_class_0::FloatMisc            0      0.00%     79.93% # Class of committed instruction
system.cpu0.commit.op_class_0::FloatSqrt            0      0.00%     79.93% # Class of committed instruction
system.cpu0.commit.op_class_0::SimdAdd              0      0.00%     79.93% # Class of committed instruction
system.cpu0.commit.op_class_0::SimdAddAcc            0      0.00%     79.93% # Class of committed instruction
system.cpu0.commit.op_class_0::SimdAlu              0      0.00%     79.93% # Class of committed instruction
system.cpu0.commit.op_class_0::SimdCmp              0      0.00%     79.93% # Class of committed instruction
system.cpu0.commit.op_class_0::SimdCvt              0      0.00%     79.93% # Class of committed instruction
system.cpu0.commit.op_class_0::SimdMisc             0      0.00%     79.93% # Class of committed instruction
system.cpu0.commit.op_class_0::SimdMult             0      0.00%     79.93% # Class of committed instruction
system.cpu0.commit.op_class_0::SimdMultAcc            0      0.00%     79.93% # Class of committed instruction
system.cpu0.commit.op_class_0::SimdShift            0      0.00%     79.93% # Class of committed instruction
system.cpu0.commit.op_class_0::SimdShiftAcc            0      0.00%     79.93% # Class of committed instruction
system.cpu0.commit.op_class_0::SimdSqrt             0      0.00%     79.93% # Class of committed instruction
system.cpu0.commit.op_class_0::SimdFloatAdd            0      0.00%     79.93% # Class of committed instruction
system.cpu0.commit.op_class_0::SimdFloatAlu            0      0.00%     79.93% # Class of committed instruction
system.cpu0.commit.op_class_0::SimdFloatCmp            0      0.00%     79.93% # Class of committed instruction
system.cpu0.commit.op_class_0::SimdFloatCvt            0      0.00%     79.93% # Class of committed instruction
system.cpu0.commit.op_class_0::SimdFloatDiv            0      0.00%     79.93% # Class of committed instruction
system.cpu0.commit.op_class_0::SimdFloatMisc            0      0.00%     79.93% # Class of committed instruction
system.cpu0.commit.op_class_0::SimdFloatMult            0      0.00%     79.93% # Class of committed instruction
system.cpu0.commit.op_class_0::SimdFloatMultAcc            0      0.00%     79.93% # Class of committed instruction
system.cpu0.commit.op_class_0::SimdFloatSqrt            0      0.00%     79.93% # Class of committed instruction
system.cpu0.commit.op_class_0::MemRead         496551     19.22%     99.14% # Class of committed instruction
system.cpu0.commit.op_class_0::MemWrite         20916      0.81%     99.95% # Class of committed instruction
system.cpu0.commit.op_class_0::FloatMemRead         1220      0.05%    100.00% # Class of committed instruction
system.cpu0.commit.op_class_0::FloatMemWrite            0      0.00%    100.00% # Class of committed instruction
system.cpu0.commit.op_class_0::IprAccess            0      0.00%    100.00% # Class of committed instruction
system.cpu0.commit.op_class_0::InstPrefetch            0      0.00%    100.00% # Class of committed instruction
system.cpu0.commit.op_class_0::total          2584092                       # Class of committed instruction
system.cpu0.commit.bw_lim_events                38286                       # number cycles where commit BW limit reached
system.cpu0.rob.rob_reads                    36894249                       # The number of ROB reads
system.cpu0.rob.rob_writes                   14910266                       # The number of ROB writes
system.cpu0.timesIdled                            745                       # Number of times that the entire CPU went into an idle state and unscheduled itself
system.cpu0.idleCycles                          94124                       # Total number of cycles that the CPU has spent unscheduled due to idling
system.cpu0.committedInsts                    1293104                       # Number of Instructions Simulated
system.cpu0.committedOps                      2584092                       # Number of Ops (including micro ops) Simulated
system.cpu0.cpi                             23.613482                       # CPI: Cycles Per Instruction
system.cpu0.cpi_total                       23.613482                       # CPI: Total CPI of All Threads
system.cpu0.ipc                              0.042349                       # IPC: Instructions Per Cycle
system.cpu0.ipc_total                        0.042349                       # IPC: Total IPC of All Threads
system.cpu0.int_regfile_reads                 4891638                       # number of integer regfile reads
system.cpu0.int_regfile_writes                4238640                       # number of integer regfile writes
system.cpu0.fp_regfile_reads                    22918                       # number of floating regfile reads
system.cpu0.fp_regfile_writes                   11410                       # number of floating regfile writes
system.cpu0.cc_regfile_reads                  3131320                       # number of cc regfile reads
system.cpu0.cc_regfile_writes                 1327578                       # number of cc regfile writes
system.cpu0.misc_regfile_reads                2651368                       # number of misc regfile reads
system.cpu0.dcache.tags.pwrStateResidencyTicks::UNDEFINED  15267344125                       # Cumulative time (in ticks) in various power states
system.cpu0.dcache.tags.replacements           265048                       # number of replacements
system.cpu0.dcache.tags.tagsinuse                1024                       # Cycle average of tags in use
system.cpu0.dcache.tags.total_refs             314768                       # Total number of references to valid blocks.
system.cpu0.dcache.tags.sampled_refs           265048                       # Sample count of references to valid blocks.
system.cpu0.dcache.tags.avg_refs             1.187589                       # Average number of references to valid blocks.
system.cpu0.dcache.tags.warmup_cycle                0                       # Cycle when the warmup percentage was hit.
system.cpu0.dcache.tags.occ_blocks::cpu0.data         1024                       # Average occupied blocks per requestor
system.cpu0.dcache.tags.occ_percent::cpu0.data            1                       # Average percentage of cache occupancy
system.cpu0.dcache.tags.occ_percent::total            1                       # Average percentage of cache occupancy
system.cpu0.dcache.tags.occ_task_id_blocks::1024         1024                       # Occupied blocks per task id
system.cpu0.dcache.tags.age_task_id_blocks_1024::0          164                       # Occupied blocks per task id
system.cpu0.dcache.tags.age_task_id_blocks_1024::1          759                       # Occupied blocks per task id
system.cpu0.dcache.tags.age_task_id_blocks_1024::2          101                       # Occupied blocks per task id
system.cpu0.dcache.tags.occ_task_id_percent::1024            1                       # Percentage of cache occupancy per task id
system.cpu0.dcache.tags.tag_accesses          3406072                       # Number of tag accesses
system.cpu0.dcache.tags.data_accesses         3406072                       # Number of data accesses
system.cpu0.dcache.pwrStateResidencyTicks::UNDEFINED  15267344125                       # Cumulative time (in ticks) in various power states
system.cpu0.dcache.ReadReq_hits::cpu0.data       295705                       # number of ReadReq hits
system.cpu0.dcache.ReadReq_hits::total         295705                       # number of ReadReq hits
system.cpu0.dcache.WriteReq_hits::cpu0.data        20030                       # number of WriteReq hits
system.cpu0.dcache.WriteReq_hits::total         20030                       # number of WriteReq hits
system.cpu0.dcache.demand_hits::cpu0.data       315735                       # number of demand (read+write) hits
system.cpu0.dcache.demand_hits::total          315735                       # number of demand (read+write) hits
system.cpu0.dcache.overall_hits::cpu0.data       315735                       # number of overall hits
system.cpu0.dcache.overall_hits::total         315735                       # number of overall hits
system.cpu0.dcache.ReadReq_misses::cpu0.data       468635                       # number of ReadReq misses
system.cpu0.dcache.ReadReq_misses::total       468635                       # number of ReadReq misses
system.cpu0.dcache.WriteReq_misses::cpu0.data          886                       # number of WriteReq misses
system.cpu0.dcache.WriteReq_misses::total          886                       # number of WriteReq misses
system.cpu0.dcache.demand_misses::cpu0.data       469521                       # number of demand (read+write) misses
system.cpu0.dcache.demand_misses::total        469521                       # number of demand (read+write) misses
system.cpu0.dcache.overall_misses::cpu0.data       469521                       # number of overall misses
system.cpu0.dcache.overall_misses::total       469521                       # number of overall misses
system.cpu0.dcache.ReadReq_miss_latency::cpu0.data  34726522000                       # number of ReadReq miss cycles
system.cpu0.dcache.ReadReq_miss_latency::total  34726522000                       # number of ReadReq miss cycles
system.cpu0.dcache.WriteReq_miss_latency::cpu0.data     30469500                       # number of WriteReq miss cycles
system.cpu0.dcache.WriteReq_miss_latency::total     30469500                       # number of WriteReq miss cycles
system.cpu0.dcache.demand_miss_latency::cpu0.data  34756991500                       # number of demand (read+write) miss cycles
system.cpu0.dcache.demand_miss_latency::total  34756991500                       # number of demand (read+write) miss cycles
system.cpu0.dcache.overall_miss_latency::cpu0.data  34756991500                       # number of overall miss cycles
system.cpu0.dcache.overall_miss_latency::total  34756991500                       # number of overall miss cycles
system.cpu0.dcache.ReadReq_accesses::cpu0.data       764340                       # number of ReadReq accesses(hits+misses)
system.cpu0.dcache.ReadReq_accesses::total       764340                       # number of ReadReq accesses(hits+misses)
system.cpu0.dcache.WriteReq_accesses::cpu0.data        20916                       # number of WriteReq accesses(hits+misses)
system.cpu0.dcache.WriteReq_accesses::total        20916                       # number of WriteReq accesses(hits+misses)
system.cpu0.dcache.demand_accesses::cpu0.data       785256                       # number of demand (read+write) accesses
system.cpu0.dcache.demand_accesses::total       785256                       # number of demand (read+write) accesses
system.cpu0.dcache.overall_accesses::cpu0.data       785256                       # number of overall (read+write) accesses
system.cpu0.dcache.overall_accesses::total       785256                       # number of overall (read+write) accesses
system.cpu0.dcache.ReadReq_miss_rate::cpu0.data     0.613124                       # miss rate for ReadReq accesses
system.cpu0.dcache.ReadReq_miss_rate::total     0.613124                       # miss rate for ReadReq accesses
system.cpu0.dcache.WriteReq_miss_rate::cpu0.data     0.042360                       # miss rate for WriteReq accesses
system.cpu0.dcache.WriteReq_miss_rate::total     0.042360                       # miss rate for WriteReq accesses
system.cpu0.dcache.demand_miss_rate::cpu0.data     0.597921                       # miss rate for demand accesses
system.cpu0.dcache.demand_miss_rate::total     0.597921                       # miss rate for demand accesses
system.cpu0.dcache.overall_miss_rate::cpu0.data     0.597921                       # miss rate for overall accesses
system.cpu0.dcache.overall_miss_rate::total     0.597921                       # miss rate for overall accesses
system.cpu0.dcache.ReadReq_avg_miss_latency::cpu0.data 74101.426483                       # average ReadReq miss latency
system.cpu0.dcache.ReadReq_avg_miss_latency::total 74101.426483                       # average ReadReq miss latency
system.cpu0.dcache.WriteReq_avg_miss_latency::cpu0.data 34389.954853                       # average WriteReq miss latency
system.cpu0.dcache.WriteReq_avg_miss_latency::total 34389.954853                       # average WriteReq miss latency
system.cpu0.dcache.demand_avg_miss_latency::cpu0.data 74026.489763                       # average overall miss latency
system.cpu0.dcache.demand_avg_miss_latency::total 74026.489763                       # average overall miss latency
[...]
system.l2.ReadSharedReq_hits::cpu0.data         73233                       # number of ReadSharedReq hits
system.l2.ReadSharedReq_hits::total             73233                       # number of ReadSharedReq hits
system.l2.demand_hits::cpu0.data                73912                       # number of demand (read+write) hits
system.l2.demand_hits::total                    73912                       # number of demand (read+write) hits
system.l2.overall_hits::cpu0.data               73912                       # number of overall hits
system.l2.overall_hits::total                   73912                       # number of overall hits
system.l2.ReadExReq_misses::cpu0.data             197                       # number of ReadExReq misses
system.l2.ReadExReq_misses::total                 197                       # number of ReadExReq misses
system.l2.ReadSharedReq_misses::cpu0.data       190939                       # number of ReadSharedReq misses
system.l2.ReadSharedReq_misses::total          190939                       # number of ReadSharedReq misses
system.l2.demand_misses::cpu0.data             191136                       # number of demand (read+write) misses
system.l2.demand_misses::total                 191136                       # number of demand (read+write) misses
system.l2.overall_misses::cpu0.data            191136                       # number of overall misses
system.l2.overall_misses::total                191136                       # number of overall misses
system.l2.ReadExReq_miss_latency::cpu0.data     20137500                       # number of ReadExReq miss cycles
system.l2.ReadExReq_miss_latency::total      20137500                       # number of ReadExReq miss cycles
system.l2.ReadSharedReq_miss_latency::cpu0.data  18075317500                       # number of ReadSharedReq miss cycles
system.l2.ReadSharedReq_miss_latency::total  18075317500                       # number of ReadSharedReq miss cycles
system.l2.demand_miss_latency::cpu0.data  18095455000                       # number of demand (read+write) miss cycles
system.l2.demand_miss_latency::total      18095455000                       # number of demand (read+write) miss cycles
system.l2.overall_miss_latency::cpu0.data  18095455000                       # number of overall miss cycles
system.l2.overall_miss_latency::total     18095455000                       # number of overall miss cycles
system.l2.WritebackDirty_accesses::writebacks         2421                       # number of WritebackDirty accesses(hits+misses)
system.l2.WritebackDirty_accesses::total         2421                       # number of WritebackDirty accesses(hits+misses)
system.l2.ReadExReq_accesses::cpu0.data           876                       # number of ReadExReq accesses(hits+misses)
system.l2.ReadExReq_accesses::total               876                       # number of ReadExReq accesses(hits+misses)
system.l2.ReadSharedReq_accesses::cpu0.data       264172                       # number of ReadSharedReq accesses(hits+misses)
system.l2.ReadSharedReq_accesses::total        264172                       # number of ReadSharedReq accesses(hits+misses)
system.l2.demand_accesses::cpu0.data           265048                       # number of demand (read+write) accesses
system.l2.demand_accesses::total               265048                       # number of demand (read+write) accesses
system.l2.overall_accesses::cpu0.data          265048                       # number of overall (read+write) accesses
system.l2.overall_accesses::total              265048                       # number of overall (read+write) accesses
system.l2.ReadExReq_miss_rate::cpu0.data     0.224886                       # miss rate for ReadExReq accesses
system.l2.ReadExReq_miss_rate::total         0.224886                       # miss rate for ReadExReq accesses
system.l2.ReadSharedReq_miss_rate::cpu0.data     0.722783                       # miss rate for ReadSharedReq accesses
system.l2.ReadSharedReq_miss_rate::total     0.722783                       # miss rate for ReadSharedReq accesses
system.l2.demand_miss_rate::cpu0.data        0.721137                       # miss rate for demand accesses
system.l2.demand_miss_rate::total            0.721137                       # miss rate for demand accesses
system.l2.overall_miss_rate::cpu0.data       0.721137                       # miss rate for overall accesses
system.l2.overall_miss_rate::total           0.721137                       # miss rate for overall accesses
system.l2.ReadExReq_avg_miss_latency::cpu0.data 102220.812183                       # average ReadExReq miss latency
system.l2.ReadExReq_avg_miss_latency::total 102220.812183                       # average ReadExReq miss latency
system.l2.ReadSharedReq_avg_miss_latency::cpu0.data 94665.403611                       # average ReadSharedReq miss latency
system.l2.ReadSharedReq_avg_miss_latency::total 94665.403611                       # average ReadSharedReq miss latency
system.l2.demand_avg_miss_latency::cpu0.data 94673.190817                       # average overall miss latency
system.l2.demand_avg_miss_latency::total 94673.190817                       # average overall miss latency
system.l2.overall_avg_miss_latency::cpu0.data 94673.190817                       # average overall miss latency
system.l2.overall_avg_miss_latency::total 94673.190817                       # average overall miss latency
system.l2.blocked_cycles::no_mshrs                  0                       # number of cycles access was blocked
system.l2.blocked_cycles::no_targets                0                       # number of cycles access was blocked
system.l2.blocked::no_mshrs                         0                       # number of cycles access was blocked
system.l2.blocked::no_targets                       0                       # number of cycles access was blocked
system.l2.avg_blocked_cycles::no_mshrs            nan                       # average number of cycles each access was blocked
system.l2.avg_blocked_cycles::no_targets          nan                       # average number of cycles each access was blocked
system.l2.writebacks::writebacks                  283                       # number of writebacks
system.l2.writebacks::total                       283                       # number of writebacks
system.l2.ReadExReq_mshr_misses::cpu0.data          197                       # number of ReadExReq MSHR misses
system.l2.ReadExReq_mshr_misses::total            197                       # number of ReadExReq MSHR misses
system.l2.ReadSharedReq_mshr_misses::cpu0.data       190939                       # number of ReadSharedReq MSHR misses
system.l2.ReadSharedReq_mshr_misses::total       190939                       # number of ReadSharedReq MSHR misses
system.l2.demand_mshr_misses::cpu0.data        191136                       # number of demand (read+write) MSHR misses
system.l2.demand_mshr_misses::total            191136                       # number of demand (read+write) MSHR misses
system.l2.overall_mshr_misses::cpu0.data       191136                       # number of overall MSHR misses
system.l2.overall_mshr_misses::total           191136                       # number of overall MSHR misses
system.l2.ReadExReq_mshr_miss_latency::cpu0.data     18167500                       # number of ReadExReq MSHR miss cycles
system.l2.ReadExReq_mshr_miss_latency::total     18167500                       # number of ReadExReq MSHR miss cycles
system.l2.ReadSharedReq_mshr_miss_latency::cpu0.data  16165927500                       # number of ReadSharedReq MSHR miss cycles
system.l2.ReadSharedReq_mshr_miss_latency::total  16165927500                       # number of ReadSharedReq MSHR miss cycles
system.l2.demand_mshr_miss_latency::cpu0.data  16184095000                       # number of demand (read+write) MSHR miss cycles
system.l2.demand_mshr_miss_latency::total  16184095000                       # number of demand (read+write) MSHR miss cycles
system.l2.overall_mshr_miss_latency::cpu0.data  16184095000                       # number of overall MSHR miss cycles
system.l2.overall_mshr_miss_latency::total  16184095000                       # number of overall MSHR miss cycles
system.l2.ReadExReq_mshr_miss_rate::cpu0.data     0.224886                       # mshr miss rate for ReadExReq accesses
system.l2.ReadExReq_mshr_miss_rate::total     0.224886                       # mshr miss rate for ReadExReq accesses
system.l2.ReadSharedReq_mshr_miss_rate::cpu0.data     0.722783                       # mshr miss rate for ReadSharedReq accesses
system.l2.ReadSharedReq_mshr_miss_rate::total     0.722783                       # mshr miss rate for ReadSharedReq accesses
system.l2.demand_mshr_miss_rate::cpu0.data     0.721137                       # mshr miss rate for demand accesses
system.l2.demand_mshr_miss_rate::total       0.721137                       # mshr miss rate for demand accesses
system.l2.overall_mshr_miss_rate::cpu0.data     0.721137                       # mshr miss rate for overall accesses
system.l2.overall_mshr_miss_rate::total      0.721137                       # mshr miss rate for overall accesses
system.l2.ReadExReq_avg_mshr_miss_latency::cpu0.data 92220.812183                       # average ReadExReq mshr miss latency
system.l2.ReadExReq_avg_mshr_miss_latency::total 92220.812183                       # average ReadExReq mshr miss latency
system.l2.ReadSharedReq_avg_mshr_miss_latency::cpu0.data 84665.403611                       # average ReadSharedReq mshr miss latency
system.l2.ReadSharedReq_avg_mshr_miss_latency::total 84665.403611                       # average ReadSharedReq mshr miss latency
system.l2.demand_avg_mshr_miss_latency::cpu0.data 84673.190817                       # average overall mshr miss latency
system.l2.demand_avg_mshr_miss_latency::total 84673.190817                       # average overall mshr miss latency
system.l2.overall_avg_mshr_miss_latency::cpu0.data 84673.190817                       # average overall mshr miss latency
system.l2.overall_avg_mshr_miss_latency::total 84673.190817                       # average overall mshr miss latency
system.membus.snoop_filter.tot_requests        382271                       # Total number of requests made to the snoop filter.
system.membus.snoop_filter.hit_single_requests       191136                       # Number of requests hitting in the snoop filter with a single holder of the requested data.
system.membus.snoop_filter.hit_multi_requests            0                       # Number of requests hitting in the snoop filter with multiple (>1) holders of the requested data.
system.membus.snoop_filter.tot_snoops               0                       # Total number of snoops made to the snoop filter.
system.membus.snoop_filter.hit_single_snoops            0                       # Number of snoops hitting in the snoop filter with a single holder of the requested data.
system.membus.snoop_filter.hit_multi_snoops            0                       # Number of snoops hitting in the snoop filter with multiple (>1) holders of the requested data.
system.membus.pwrStateResidencyTicks::UNDEFINED  15267344125                       # Cumulative time (in ticks) in various power states
system.membus.trans_dist::ReadResp             190939                       # Transaction distribution
system.membus.trans_dist::WritebackDirty          283                       # Transaction distribution
system.membus.trans_dist::CleanEvict           190851                       # Transaction distribution
system.membus.trans_dist::ReadExReq               197                       # Transaction distribution
system.membus.trans_dist::ReadExResp              197                       # Transaction distribution
system.membus.trans_dist::ReadSharedReq        190940                       # Transaction distribution
system.membus.pkt_count_system.l2.mem_side::system.mem_ctrls.port       573407                       # Packet count per connected master and slave (bytes)
system.membus.pkt_count_system.l2.mem_side::total       573407                       # Packet count per connected master and slave (bytes)
system.membus.pkt_count::total                 573407                       # Packet count per connected master and slave (bytes)
system.membus.pkt_size_system.l2.mem_side::system.mem_ctrls.port     12250816                       # Cumulative packet size per connected master and slave (bytes)
system.membus.pkt_size_system.l2.mem_side::total     12250816                       # Cumulative packet size per connected master and slave (bytes)
system.membus.pkt_size::total                12250816                       # Cumulative packet size per connected master and slave (bytes)
system.membus.snoops                                0                       # Total snoops (count)
system.membus.snoopTraffic                          0                       # Total snoop traffic (bytes)
system.membus.snoop_fanout::samples            191137                       # Request fanout histogram
system.membus.snoop_fanout::mean                    0                       # Request fanout histogram
system.membus.snoop_fanout::stdev                   0                       # Request fanout histogram
system.membus.snoop_fanout::underflows              0      0.00%      0.00% # Request fanout histogram
system.membus.snoop_fanout::0                  191137    100.00%    100.00% # Request fanout histogram
system.membus.snoop_fanout::1                       0      0.00%    100.00% # Request fanout histogram
system.membus.snoop_fanout::overflows               0      0.00%    100.00% # Request fanout histogram
system.membus.snoop_fanout::min_value               0                       # Request fanout histogram
system.membus.snoop_fanout::max_value               0                       # Request fanout histogram
system.membus.snoop_fanout::total              191137                       # Request fanout histogram
system.membus.reqLayer8.occupancy           449204500                       # Layer occupancy (ticks)
system.membus.reqLayer8.utilization               2.9                       # Layer utilization (%)
system.membus.respLayer1.occupancy         1034661000                       # Layer occupancy (ticks)
system.membus.respLayer1.utilization              6.8                       # Layer utilization (%)
system.tol2bus.snoop_filter.tot_requests       530096                       # Total number of requests made to the snoop filter.
system.tol2bus.snoop_filter.hit_single_requests       265048                       # Number of requests hitting in the snoop filter with a single holder of the requested data.
system.tol2bus.snoop_filter.hit_multi_requests          611                       # Number of requests hitting in the snoop filter with multiple (>1) holders of the requested data.
system.tol2bus.snoop_filter.tot_snoops              2                       # Total number of snoops made to the snoop filter.
system.tol2bus.snoop_filter.hit_single_snoops            2                       # Number of snoops hitting in the snoop filter with a single holder of the requested data.
system.tol2bus.snoop_filter.hit_multi_snoops            0                       # Number of snoops hitting in the snoop filter with multiple (>1) holders of the requested data.
system.tol2bus.pwrStateResidencyTicks::UNDEFINED  15267344125                       # Cumulative time (in ticks) in various power states
system.tol2bus.trans_dist::ReadResp            264172                       # Transaction distribution
system.tol2bus.trans_dist::WritebackDirty         2704                       # Transaction distribution
system.tol2bus.trans_dist::CleanEvict          453480                       # Transaction distribution
system.tol2bus.trans_dist::ReadExReq              876                       # Transaction distribution
system.tol2bus.trans_dist::ReadExResp             876                       # Transaction distribution
system.tol2bus.trans_dist::ReadSharedReq       264172                       # Transaction distribution
system.tol2bus.pkt_count_system.cpu0.dcache.mem_side::system.l2.cpu_side       795144                       # Packet count per connected master and slave (bytes)
system.tol2bus.pkt_count::total                795144                       # Packet count per connected master and slave (bytes)
system.tol2bus.pkt_size_system.cpu0.dcache.mem_side::system.l2.cpu_side     17118016                       # Cumulative packet size per connected master and slave (bytes)
system.tol2bus.pkt_size::total               17118016                       # Cumulative packet size per connected master and slave (bytes)
system.tol2bus.snoops                          191136                       # Total snoops (count)
system.tol2bus.snoopTraffic                     18112                       # Total snoop traffic (bytes)
system.tol2bus.snoop_fanout::samples           456184                       # Request fanout histogram
system.tol2bus.snoop_fanout::mean            0.001344                       # Request fanout histogram
system.tol2bus.snoop_fanout::stdev           0.036633                       # Request fanout histogram
system.tol2bus.snoop_fanout::underflows             0      0.00%      0.00% # Request fanout histogram
system.tol2bus.snoop_fanout::0                 455571     99.87%     99.87% # Request fanout histogram
system.tol2bus.snoop_fanout::1                    613      0.13%    100.00% # Request fanout histogram
system.tol2bus.snoop_fanout::2                      0      0.00%    100.00% # Request fanout histogram
system.tol2bus.snoop_fanout::3                      0      0.00%    100.00% # Request fanout histogram
system.tol2bus.snoop_fanout::4                      0      0.00%    100.00% # Request fanout histogram
system.tol2bus.snoop_fanout::5                      0      0.00%    100.00% # Request fanout histogram
system.tol2bus.snoop_fanout::6                      0      0.00%    100.00% # Request fanout histogram
system.tol2bus.snoop_fanout::7                      0      0.00%    100.00% # Request fanout histogram
system.tol2bus.snoop_fanout::8                      0      0.00%    100.00% # Request fanout histogram
system.tol2bus.snoop_fanout::9                      0      0.00%    100.00% # Request fanout histogram
system.tol2bus.snoop_fanout::10                     0      0.00%    100.00% # Request fanout histogram
system.tol2bus.snoop_fanout::11                     0      0.00%    100.00% # Request fanout histogram
system.tol2bus.snoop_fanout::12                     0      0.00%    100.00% # Request fanout histogram
system.tol2bus.snoop_fanout::13                     0      0.00%    100.00% # Request fanout histogram
system.tol2bus.snoop_fanout::14                     0      0.00%    100.00% # Request fanout histogram
system.tol2bus.snoop_fanout::15                     0      0.00%    100.00% # Request fanout histogram
system.tol2bus.snoop_fanout::16                     0      0.00%    100.00% # Request fanout histogram
system.tol2bus.snoop_fanout::overflows              0      0.00%    100.00% # Request fanout histogram
system.tol2bus.snoop_fanout::min_value              0                       # Request fanout histogram
system.tol2bus.snoop_fanout::max_value              1                       # Request fanout histogram
system.tol2bus.snoop_fanout::total             456184                       # Request fanout histogram
system.tol2bus.reqLayer0.occupancy          267469000                       # Layer occupancy (ticks)
system.tol2bus.reqLayer0.utilization              1.8                       # Layer utilization (%)
system.tol2bus.respLayer1.occupancy         397572000                       # Layer occupancy (ticks)
system.tol2bus.respLayer1.utilization             2.6                       # Layer utilization (%)

---------- End Simulation Statistics   ----------
