
---------- Begin Simulation Statistics ----------
sim_seconds                                  0.015267                       # Number of seconds simulated
sim_ticks                                 15267344125                       # Number of ticks simulated
final_tick                               198475473625                       # Number of ticks from beginning of simulation (restored from checkpoints and never reset)
sim_freq                                 1000000000000                       # Frequency of simulated ticks
host_inst_rate                                1556896                       # Simulator instruction rate (inst/s)
host_op_rate                                  2931405                       # Simulator op (including micro ops) rate (op/s)
host_tick_rate                               52369814                       # Simulator tick rate (ticks/s)
host_mem_usage                                2302304                       # Number of bytes of host memory used
host_seconds                                   291.53                       # Real time elapsed on the host
sim_insts                                   453881131                       # Number of instructions simulated
sim_ops                                     854590997                       # Number of ops (including micro ops) simulated
system.voltage_domain.voltage                       1                       # Voltage in Volts
system.clk_domain.clock                          1000                       # Clock period in ticks
system.mem_ctrls.pwrStateResidencyTicks::UNDEFINED  15267344125                       # Cumulative time (in ticks) in various power states
system.mem_ctrls.bytes_read::cpu0.inst            192                       # Number of bytes read from this memory
system.mem_ctrls.bytes_read::cpu0.data         244864                       # Number of bytes read from this memory
system.mem_ctrls.bytes_read::total             245056                       # Number of bytes read from this memory
system.mem_ctrls.bytes_inst_read::cpu0.inst          192                       # Number of instructions bytes read from this memory
system.mem_ctrls.bytes_inst_read::total           192                       # Number of instructions bytes read from this memory
system.mem_ctrls.bytes_written::writebacks       235520                       # Number of bytes written to this memory
system.mem_ctrls.bytes_written::total          235520                       # Number of bytes written to this memory
system.mem_ctrls.num_reads::cpu0.inst               3                       # Number of read requests responded to by this memory
system.mem_ctrls.num_reads::cpu0.data            3826                       # Number of read requests responded to by this memory
system.mem_ctrls.num_reads::total                3829                       # Number of read requests responded to by this memory
system.mem_ctrls.num_writes::writebacks          3680                       # Number of write requests responded to by this memory
system.mem_ctrls.num_writes::total               3680                       # Number of write requests responded to by this memory
system.mem_ctrls.bw_read::cpu0.inst             12576                       # Total read bandwidth from this memory (bytes/s)
system.mem_ctrls.bw_read::cpu0.data          16038415                       # Total read bandwidth from this memory (bytes/s)
system.mem_ctrls.bw_read::total              16050991                       # Total read bandwidth from this memory (bytes/s)
system.mem_ctrls.bw_inst_read::cpu0.inst        12576                       # Instruction read bandwidth from this memory (bytes/s)
system.mem_ctrls.bw_inst_read::total            12576                       # Instruction read bandwidth from this memory (bytes/s)
system.mem_ctrls.bw_write::writebacks        15426390                       # Write bandwidth from this memory (bytes/s)
system.mem_ctrls.bw_write::total             15426390                       # Write bandwidth from this memory (bytes/s)
system.mem_ctrls.bw_total::writebacks        15426390                       # Total bandwidth to/from this memory (bytes/s)
system.mem_ctrls.bw_total::cpu0.inst            12576                       # Total bandwidth to/from this memory (bytes/s)
system.mem_ctrls.bw_total::cpu0.data         16038415                       # Total bandwidth to/from this memory (bytes/s)
system.mem_ctrls.bw_total::total             31477380                       # Total bandwidth to/from this memory (bytes/s)
system.mem_ctrls.readReqs                        3829                       # Number of read requests accepted
system.mem_ctrls.writeReqs                       3680                       # Number of write requests accepted
system.mem_ctrls.readBursts                      3829                       # Number of DRAM read bursts, including those serviced by the write queue
system.mem_ctrls.writeBursts                     3680                       # Number of DRAM write bursts, including those merged in the write queue
system.mem_ctrls.bytesReadDRAM                 245056                       # Total number of bytes read from DRAM
system.mem_ctrls.bytesReadWrQ                       0                       # Total number of bytes read from write queue
system.mem_ctrls.bytesWritten                  235392                       # Total number of bytes written to DRAM
system.mem_ctrls.bytesReadSys                  245056                       # Total read bytes from the system interface side
system.mem_ctrls.bytesWrittenSys               235520                       # Total written bytes from the system interface side
system.mem_ctrls.servicedByWrQ                      0                       # Number of DRAM read bursts serviced by the write queue
system.mem_ctrls.mergedWrBursts                     0                       # Number of DRAM write bursts merged with an existing one
system.mem_ctrls.neitherReadNorWriteReqs            0                       # Number of requests that are neither read nor write
system.mem_ctrls.perBankRdBursts::0               128                       # Per bank write bursts
system.mem_ctrls.perBankRdBursts::1               129                       # Per bank write bursts
system.mem_ctrls.perBankRdBursts::2               128                       # Per bank write bursts
system.mem_ctrls.perBankRdBursts::3               253                       # Per bank write bursts
system.mem_ctrls.perBankRdBursts::4               256                       # Per bank write bursts
system.mem_ctrls.perBankRdBursts::5               256                       # Per bank write bursts
system.mem_ctrls.perBankRdBursts::6               258                       # Per bank write bursts
system.mem_ctrls.perBankRdBursts::7               249                       # Per bank write bursts
system.mem_ctrls.perBankRdBursts::8               129                       # Per bank write bursts
system.mem_ctrls.perBankRdBursts::9               298                       # Per bank write bursts
system.mem_ctrls.perBankRdBursts::10              462                       # Per bank write bursts
system.mem_ctrls.perBankRdBursts::11              526                       # Per bank write bursts
system.mem_ctrls.perBankRdBursts::12              371                       # Per bank write bursts
system.mem_ctrls.perBankRdBursts::13              130                       # Per bank write bursts
system.mem_ctrls.perBankRdBursts::14              128                       # Per bank write bursts
system.mem_ctrls.perBankRdBursts::15              128                       # Per bank write bursts
system.mem_ctrls.perBankWrBursts::0               126                       # Per bank write bursts
system.mem_ctrls.perBankWrBursts::1               116                       # Per bank write bursts
system.mem_ctrls.perBankWrBursts::2               120                       # Per bank write bursts
system.mem_ctrls.perBankWrBursts::3               253                       # Per bank write bursts
system.mem_ctrls.perBankWrBursts::4               249                       # Per bank write bursts
system.mem_ctrls.perBankWrBursts::5               248                       # Per bank write bursts
system.mem_ctrls.perBankWrBursts::6               247                       # Per bank write bursts
system.mem_ctrls.perBankWrBursts::7               219                       # Per bank write bursts
system.mem_ctrls.perBankWrBursts::8               112                       # Per bank write bursts
system.mem_ctrls.perBankWrBursts::9               302                       # Per bank write bursts
system.mem_ctrls.perBankWrBursts::10              455                       # Per bank write bursts
system.mem_ctrls.perBankWrBursts::11              521                       # Per bank write bursts
system.mem_ctrls.perBankWrBursts::12              341                       # Per bank write bursts
system.mem_ctrls.perBankWrBursts::13              128                       # Per bank write bursts
system.mem_ctrls.perBankWrBursts::14              128                       # Per bank write bursts
system.mem_ctrls.perBankWrBursts::15              113                       # Per bank write bursts
system.mem_ctrls.numRdRetry                         0                       # Number of times read queue was full causing retry
system.mem_ctrls.numWrRetry                         0                       # Number of times write queue was full causing retry
system.mem_ctrls.totGap                   15267888000                       # Total gap between requests
system.mem_ctrls.readPktSize::0                     0                       # Read request sizes (log2)
system.mem_ctrls.readPktSize::1                     0                       # Read request sizes (log2)
system.mem_ctrls.readPktSize::2                     0                       # Read request sizes (log2)
system.mem_ctrls.readPktSize::3                     0                       # Read request sizes (log2)
system.mem_ctrls.readPktSize::4                     0                       # Read request sizes (log2)
system.mem_ctrls.readPktSize::5                     0                       # Read request sizes (log2)
system.mem_ctrls.readPktSize::6                  3829                       # Read request sizes (log2)
system.mem_ctrls.writePktSize::0                    0                       # Write request sizes (log2)
system.mem_ctrls.writePktSize::1                    0                       # Write request sizes (log2)
system.mem_ctrls.writePktSize::2                    0                       # Write request sizes (log2)
system.mem_ctrls.writePktSize::3                    0                       # Write request sizes (log2)
system.mem_ctrls.writePktSize::4                    0                       # Write request sizes (log2)
system.mem_ctrls.writePktSize::5                    0                       # Write request sizes (log2)
system.mem_ctrls.writePktSize::6                 3680                       # Write request sizes (log2)
system.mem_ctrls.rdQLenPdf::0                    3827                       # What read queue length does an incoming req see
system.mem_ctrls.rdQLenPdf::1                       2                       # What read queue length does an incoming req see
system.mem_ctrls.rdQLenPdf::2                       0                       # What read queue length does an incoming req see
system.mem_ctrls.rdQLenPdf::3                       0                       # What read queue length does an incoming req see
system.mem_ctrls.rdQLenPdf::4                       0                       # What read queue length does an incoming req see
system.mem_ctrls.rdQLenPdf::5                       0                       # What read queue length does an incoming req see
system.mem_ctrls.rdQLenPdf::6                       0                       # What read queue length does an incoming req see
system.mem_ctrls.rdQLenPdf::7                       0                       # What read queue length does an incoming req see
system.mem_ctrls.rdQLenPdf::8                       0                       # What read queue length does an incoming req see
system.mem_ctrls.rdQLenPdf::9                       0                       # What read queue length does an incoming req see
system.mem_ctrls.rdQLenPdf::10                      0                       # What read queue length does an incoming req see
system.mem_ctrls.rdQLenPdf::11                      0                       # What read queue length does an incoming req see
system.mem_ctrls.rdQLenPdf::12                      0                       # What read queue length does an incoming req see
system.mem_ctrls.rdQLenPdf::13                      0                       # What read queue length does an incoming req see
system.mem_ctrls.rdQLenPdf::14                      0                       # What read queue length does an incoming req see
system.mem_ctrls.rdQLenPdf::15                      0                       # What read queue length does an incoming req see
system.mem_ctrls.rdQLenPdf::16                      0                       # What read queue length does an incoming req see
system.mem_ctrls.rdQLenPdf::17                      0                       # What read queue length does an incoming req see
system.mem_ctrls.rdQLenPdf::18                      0                       # What read queue length does an incoming req see
system.mem_ctrls.rdQLenPdf::19                      0                       # What read queue length does an incoming req see
system.mem_ctrls.rdQLenPdf::20                      0                       # What read queue length does an incoming req see
system.mem_ctrls.rdQLenPdf::21                      0                       # What read queue length does an incoming req see
system.mem_ctrls.rdQLenPdf::22                      0                       # What read queue length does an incoming req see
system.mem_ctrls.rdQLenPdf::23                      0                       # What read queue length does an incoming req see
system.mem_ctrls.rdQLenPdf::24                      0                       # What read queue length does an incoming req see
system.mem_ctrls.rdQLenPdf::25                      0                       # What read queue length does an incoming req see
system.mem_ctrls.rdQLenPdf::26                      0                       # What read queue length does an incoming req see
system.mem_ctrls.rdQLenPdf::27                      0                       # What read queue length does an incoming req see
system.mem_ctrls.rdQLenPdf::28                      0                       # What read queue length does an incoming req see
system.mem_ctrls.rdQLenPdf::29                      0                       # What read queue length does an incoming req see
system.mem_ctrls.rdQLenPdf::30                      0                       # What read queue length does an incoming req see
system.mem_ctrls.rdQLenPdf::31                      0                       # What read queue length does an incoming req see
system.mem_ctrls.wrQLenPdf::0                       0                       # What write queue length does an incoming req see
system.mem_ctrls.wrQLenPdf::1                       0                       # What write queue length does an incoming req see
system.mem_ctrls.wrQLenPdf::2                       0                       # What write queue length does an incoming req see
system.mem_ctrls.wrQLenPdf::3                       0                       # What write queue length does an incoming req see
system.mem_ctrls.wrQLenPdf::4                       0                       # What write queue length does an incoming req see
system.mem_ctrls.wrQLenPdf::5                       0                       # What write queue length does an incoming req see
system.mem_ctrls.wrQLenPdf::6                       0                       # What write queue length does an incoming req see
system.mem_ctrls.wrQLenPdf::7                       0                       # What write queue length does an incoming req see
system.mem_ctrls.wrQLenPdf::8                       0                       # What write queue length does an incoming req see
system.mem_ctrls.wrQLenPdf::9                       0                       # What write queue length does an incoming req see
system.mem_ctrls.wrQLenPdf::10                      0                       # What write queue length does an incoming req see
system.mem_ctrls.wrQLenPdf::11                      0                       # What write queue length does an incoming req see
system.mem_ctrls.wrQLenPdf::12                      0                       # What write queue length does an incoming req see
system.mem_ctrls.wrQLenPdf::13                      0                       # What write queue length does an incoming req see
system.mem_ctrls.wrQLenPdf::14                      0                       # What write queue length does an incoming req see
system.mem_ctrls.wrQLenPdf::15                    191                       # What write queue length does an incoming req see
system.mem_ctrls.wrQLenPdf::16                    191                       # What write queue length does an incoming req see
system.mem_ctrls.wrQLenPdf::17                    206                       # What write queue length does an incoming req see
system.mem_ctrls.wrQLenPdf::18                    206                       # What write queue length does an incoming req see
system.mem_ctrls.wrQLenPdf::19                    206                       # What write queue length does an incoming req see
system.mem_ctrls.wrQLenPdf::20                    206                       # What write queue length does an incoming req see
system.mem_ctrls.wrQLenPdf::21                    206                       # What write queue length does an incoming req see
system.mem_ctrls.wrQLenPdf::22                    206                       # What write queue length does an incoming req see
system.mem_ctrls.wrQLenPdf::23                    206                       # What write queue length does an incoming req see
system.mem_ctrls.wrQLenPdf::24                    206                       # What write queue length does an incoming req see
system.mem_ctrls.wrQLenPdf::25                    206                       # What write queue length does an incoming req see
system.mem_ctrls.wrQLenPdf::26                    206                       # What write queue length does an incoming req see
system.mem_ctrls.wrQLenPdf::27                    206                       # What write queue length does an incoming req see
system.mem_ctrls.wrQLenPdf::28                    206                       # What write queue length does an incoming req see
system.mem_ctrls.wrQLenPdf::29                    206                       # What write queue length does an incoming req see
system.mem_ctrls.wrQLenPdf::30                    207                       # What write queue length does an incoming req see
system.mem_ctrls.wrQLenPdf::31                    207                       # What write queue length does an incoming req see
system.mem_ctrls.wrQLenPdf::32                    206                       # What write queue length does an incoming req see
system.mem_ctrls.wrQLenPdf::33                      0                       # What write queue length does an incoming req see
system.mem_ctrls.wrQLenPdf::34                      0                       # What write queue length does an incoming req see
system.mem_ctrls.wrQLenPdf::35                      0                       # What write queue length does an incoming req see
system.mem_ctrls.wrQLenPdf::36                      0                       # What write queue length does an incoming req see
system.mem_ctrls.wrQLenPdf::37                      0                       # What write queue length does an incoming req see
system.mem_ctrls.wrQLenPdf::38                      0                       # What write queue length does an incoming req see
system.mem_ctrls.wrQLenPdf::39                      0                       # What write queue length does an incoming req see
system.mem_ctrls.wrQLenPdf::40                      0                       # What write queue length does an incoming req see
system.mem_ctrls.wrQLenPdf::41                      0                       # What write queue length does an incoming req see
system.mem_ctrls.wrQLenPdf::42                      0                       # What write queue length does an incoming req see
system.mem_ctrls.wrQLenPdf::43                      0                       # What write queue length does an incoming req see
system.mem_ctrls.wrQLenPdf::44                      0                       # What write queue length does an incoming req see
system.mem_ctrls.wrQLenPdf::45                      0                       # What write queue length does an incoming req see
system.mem_ctrls.wrQLenPdf::46                      0                       # What write queue length does an incoming req see
system.mem_ctrls.wrQLenPdf::47                      0                       # What write queue length does an incoming req see
system.mem_ctrls.wrQLenPdf::48                      0                       # What write queue length does an incoming req see
system.mem_ctrls.wrQLenPdf::49                      0                       # What write queue length does an incoming req see
system.mem_ctrls.wrQLenPdf::50                      0                       # What write queue length does an incoming req see
system.mem_ctrls.wrQLenPdf::51                      0                       # What write queue length does an incoming req see
system.mem_ctrls.wrQLenPdf::52                      0                       # What write queue length does an incoming req see
system.mem_ctrls.wrQLenPdf::53                      0                       # What write queue length does an incoming req see
system.mem_ctrls.wrQLenPdf::54                      0                       # What write queue length does an incoming req see
system.mem_ctrls.wrQLenPdf::55                      0                       # What write queue length does an incoming req see
system.mem_ctrls.wrQLenPdf::56                      0                       # What write queue length does an incoming req see
system.mem_ctrls.wrQLenPdf::57                      0                       # What write queue length does an incoming req see
system.mem_ctrls.wrQLenPdf::58                      0                       # What write queue length does an incoming req see
system.mem_ctrls.wrQLenPdf::59                      0                       # What write queue length does an incoming req see
system.mem_ctrls.wrQLenPdf::60                      0                       # What write queue length does an incoming req see
system.mem_ctrls.wrQLenPdf::61                      0                       # What write queue length does an incoming req see
system.mem_ctrls.wrQLenPdf::62                      0                       # What write queue length does an incoming req see
system.mem_ctrls.wrQLenPdf::63                      0                       # What write queue length does an incoming req see
system.mem_ctrls.bytesPerActivate::samples         4515                       # Bytes accessed per row activation
system.mem_ctrls.bytesPerActivate::mean    106.411517                       # Bytes accessed per row activation
system.mem_ctrls.bytesPerActivate::gmean    78.421415                       # Bytes accessed per row activation
system.mem_ctrls.bytesPerActivate::stdev   148.507828                       # Bytes accessed per row activation
system.mem_ctrls.bytesPerActivate::0-127         3919     86.80%     86.80% # Bytes accessed per row activation
system.mem_ctrls.bytesPerActivate::128-255          244      5.40%     92.20% # Bytes accessed per row activation
system.mem_ctrls.bytesPerActivate::256-383          104      2.30%     94.51% # Bytes accessed per row activation
system.mem_ctrls.bytesPerActivate::384-511           60      1.33%     95.84% # Bytes accessed per row activation
system.mem_ctrls.bytesPerActivate::512-639           61      1.35%     97.19% # Bytes accessed per row activation
system.mem_ctrls.bytesPerActivate::640-767           43      0.95%     98.14% # Bytes accessed per row activation
system.mem_ctrls.bytesPerActivate::768-895           26      0.58%     98.72% # Bytes accessed per row activation
system.mem_ctrls.bytesPerActivate::896-1023           21      0.47%     99.18% # Bytes accessed per row activation
system.mem_ctrls.bytesPerActivate::1024-1151           37      0.82%    100.00% # Bytes accessed per row activation
system.mem_ctrls.bytesPerActivate::total         4515                       # Bytes accessed per row activation
system.mem_ctrls.rdPerTurnAround::samples          206                       # Reads before turning the bus around for writes
system.mem_ctrls.rdPerTurnAround::mean      18.563107                       # Reads before turning the bus around for writes
system.mem_ctrls.rdPerTurnAround::gmean     18.501203                       # Reads before turning the bus around for writes
system.mem_ctrls.rdPerTurnAround::stdev      1.614990                       # Reads before turning the bus around for writes
system.mem_ctrls.rdPerTurnAround::16               10      4.85%      4.85% # Reads before turning the bus around for writes
system.mem_ctrls.rdPerTurnAround::17                5      2.43%      7.28% # Reads before turning the bus around for writes
system.mem_ctrls.rdPerTurnAround::18              129     62.62%     69.90% # Reads before turning the bus around for writes
system.mem_ctrls.rdPerTurnAround::19               32     15.53%     85.44% # Reads before turning the bus around for writes
system.mem_ctrls.rdPerTurnAround::20               13      6.31%     91.75% # Reads before turning the bus around for writes
system.mem_ctrls.rdPerTurnAround::21                4      1.94%     93.69% # Reads before turning the bus around for writes
system.mem_ctrls.rdPerTurnAround::22                5      2.43%     96.12% # Reads before turning the bus around for writes
system.mem_ctrls.rdPerTurnAround::23                5      2.43%     98.54% # Reads before turning the bus around for writes
system.mem_ctrls.rdPerTurnAround::25                1      0.49%     99.03% # Reads before turning the bus around for writes
system.mem_ctrls.rdPerTurnAround::27                1      0.49%     99.51% # Reads before turning the bus around for writes
system.mem_ctrls.rdPerTurnAround::28                1      0.49%    100.00% # Reads before turning the bus around for writes
system.mem_ctrls.rdPerTurnAround::total           206                       # Reads before turning the bus around for writes
system.mem_ctrls.wrPerTurnAround::samples          206                       # Writes before turning the bus around for reads
system.mem_ctrls.wrPerTurnAround::mean      17.854369                       # Writes before turning the bus around for reads
system.mem_ctrls.wrPerTurnAround::gmean     17.846284                       # Writes before turning the bus around for reads
system.mem_ctrls.wrPerTurnAround::stdev      0.520933                       # Writes before turning the bus around for reads
system.mem_ctrls.wrPerTurnAround::16               15      7.28%      7.28% # Writes before turning the bus around for reads
system.mem_ctrls.wrPerTurnAround::18              191     92.72%    100.00% # Writes before turning the bus around for reads
system.mem_ctrls.wrPerTurnAround::total           206                       # Writes before turning the bus around for reads
system.mem_ctrls.totQLat                    389035500                       # Total ticks spent queuing
system.mem_ctrls.totMemAccLat               460829250                       # Total ticks spent from burst creation until serviced by the DRAM
system.mem_ctrls.totBusLat                   19145000                       # Total ticks spent in databus transfers
system.mem_ctrls.avgQLat                    101602.38                       # Average queueing delay per DRAM burst
system.mem_ctrls.avgBusLat                    5000.00                       # Average bus latency per DRAM burst
system.mem_ctrls.avgMemAccLat               120352.38                       # Average memory access latency per DRAM burst
system.mem_ctrls.avgRdBW                        16.05                       # Average DRAM read bandwidth in MiByte/s
system.mem_ctrls.avgWrBW                        15.42                       # Average achieved write bandwidth in MiByte/s
system.mem_ctrls.avgRdBWSys                     16.05                       # Average system read bandwidth in MiByte/s
system.mem_ctrls.avgWrBWSys                     15.43                       # Average system write bandwidth in MiByte/s
system.mem_ctrls.peakBW                      12800.00                       # Theoretical peak bandwidth in MiByte/s
system.mem_ctrls.busUtil                         0.25                       # Data bus utilization in percentage
system.mem_ctrls.busUtilRead                     0.13                       # Data bus utilization in percentage for reads
system.mem_ctrls.busUtilWrite                    0.12                       # Data bus utilization in percentage for writes
system.mem_ctrls.avgRdQLen                       1.00                       # Average read queue length when enqueuing
system.mem_ctrls.avgWrQLen                      24.55                       # Average write queue length when enqueuing
system.mem_ctrls.readRowHits                       42                       # Number of row buffer hits during reads
system.mem_ctrls.writeRowHits                    2950                       # Number of row buffer hits during writes
system.mem_ctrls.readRowHitRate                  1.10                       # Row buffer hit rate for reads
system.mem_ctrls.writeRowHitRate                80.16                       # Row buffer hit rate for writes
system.mem_ctrls.avgGap                    2033278.47                       # Average gap between requests
system.mem_ctrls.pageHitRate                    39.85                       # Row buffer hit rate, read and write combined
system.mem_ctrls_0.actEnergy                 13573140                       # Energy for activate commands per rank (pJ)
system.mem_ctrls_0.preEnergy                  7210500                       # Energy for precharge commands per rank (pJ)
system.mem_ctrls_0.readEnergy                11830980                       # Energy for read commands per rank (pJ)
system.mem_ctrls_0.writeEnergy                8237160                       # Energy for write commands per rank (pJ)
system.mem_ctrls_0.refreshEnergy         1339915200.000000                       # Energy for refresh commands per rank (pJ)
system.mem_ctrls_0.actBackEnergy            458137500                       # Energy for active background per rank (pJ)
system.mem_ctrls_0.preBackEnergy             64833600                       # Energy for precharge background per rank (pJ)
system.mem_ctrls_0.actPowerDownEnergy      2963888850                       # Energy for active power-down per rank (pJ)
system.mem_ctrls_0.prePowerDownEnergy      2691330240                       # Energy for precharge power-down per rank (pJ)
system.mem_ctrls_0.selfRefreshEnergy        314449200                       # Energy for self refresh per rank (pJ)
system.mem_ctrls_0.totalEnergy             7874604210                       # Total energy per rank (pJ)
system.mem_ctrls_0.averagePower            515.780881                       # Core power per rank (mW)
system.mem_ctrls_0.totalIdleTime          14089782250                       # Total Idle time Per DRAM Rank
system.mem_ctrls_0.memoryStateTime::IDLE    116902250                       # Time in different power states
system.mem_ctrls_0.memoryStateTime::REF     568918000                       # Time in different power states
system.mem_ctrls_0.memoryStateTime::SREF    582731250                       # Time in different power states
system.mem_ctrls_0.memoryStateTime::PRE_PDN   7008619500                       # Time in different power states
system.mem_ctrls_0.memoryStateTime::ACT     490396500                       # Time in different power states
system.mem_ctrls_0.memoryStateTime::ACT_PDN   6499776625                       # Time in different power states
system.mem_ctrls_1.actEnergy                 18663960                       # Energy for activate commands per rank (pJ)
system.mem_ctrls_1.preEnergy                  9923925                       # Energy for precharge commands per rank (pJ)
system.mem_ctrls_1.readEnergy                15508080                       # Energy for read commands per rank (pJ)
system.mem_ctrls_1.writeEnergy               10962000                       # Energy for write commands per rank (pJ)
system.mem_ctrls_1.refreshEnergy         1283368320.000000                       # Energy for refresh commands per rank (pJ)
system.mem_ctrls_1.actBackEnergy            500953620                       # Energy for active background per rank (pJ)
system.mem_ctrls_1.preBackEnergy             53486880                       # Energy for precharge background per rank (pJ)
system.mem_ctrls_1.actPowerDownEnergy      3346363980                       # Energy for active power-down per rank (pJ)
system.mem_ctrls_1.prePowerDownEnergy      2215932480                       # Energy for precharge power-down per rank (pJ)
system.mem_ctrls_1.selfRefreshEnergy        366110520                       # Energy for self refresh per rank (pJ)
system.mem_ctrls_1.totalEnergy             7822151265                       # Total energy per rank (pJ)
system.mem_ctrls_1.averagePower            512.345251                       # Core power per rank (mW)
system.mem_ctrls_1.totalIdleTime          14027116250                       # Total Idle time Per DRAM Rank
system.mem_ctrls_1.memoryStateTime::IDLE     88592000                       # Time in different power states
system.mem_ctrls_1.memoryStateTime::REF     544596000                       # Time in different power states
system.mem_ctrls_1.memoryStateTime::SREF    918333500                       # Time in different power states
system.mem_ctrls_1.memoryStateTime::PRE_PDN   5770705625                       # Time in different power states
system.mem_ctrls_1.memoryStateTime::ACT     606697000                       # Time in different power states
system.mem_ctrls_1.memoryStateTime::ACT_PDN   7338420000                       # Time in different power states
system.pwrStateResidencyTicks::UNDEFINED  15267344125                       # Cumulative time (in ticks) in various power states
system.cpu0.branchPred.lookups               13190700                       # Number of BP lookups
system.cpu0.branchPred.condPredicted         13190700                       # Number of conditional branches predicted
system.cpu0.branchPred.condIncorrect          1086225                       # Number of conditional branches incorrect
system.cpu0.branchPred.BTBLookups            10903905                       # Number of BTB lookups
system.cpu0.branchPred.BTBHits                      0                       # Number of BTB hits
system.cpu0.branchPred.BTBCorrect                   0                       # Number of correct BTB predictions (this stat may not work properly.
system.cpu0.branchPred.BTBHitPct             0.000000                       # BTB Hit Percentage
system.cpu0.branchPred.usedRAS                 991610                       # Number of times the RAS was used to get a target.
system.cpu0.branchPred.RASInCorrect            214818                       # Number of incorrect RAS predictions.
system.cpu0.branchPred.indirectLookups       10903905                       # Number of indirect predictor lookups.
system.cpu0.branchPred.indirectHits           3573082                       # Number of indirect target hits.
system.cpu0.branchPred.indirectMisses         7330823                       # Number of indirect misses.
system.cpu0.branchPredindirectMispredicted       779847                       # Number of mispredicted indirect branches.
system.cpu_voltage_domain.voltage                   1                       # Voltage in Volts
system.cpu_clk_domain.clock                       500                       # Clock period in ticks
system.cpu0.dtb.walker.pwrStateResidencyTicks::UNDEFINED  15267344125                       # Cumulative time (in ticks) in various power states
system.cpu0.dtb.rdAccesses                    9877769                       # TLB accesses on read requests
system.cpu0.dtb.wrAccesses                    7460376                       # TLB accesses on write requests
system.cpu0.dtb.rdMisses                       134756                       # TLB misses on read requests
system.cpu0.dtb.wrMisses                        47653                       # TLB misses on write requests
system.cpu0.apic_clk_domain.clock                8000                       # Clock period in ticks
system.cpu0.interrupts.pwrStateResidencyTicks::UNDEFINED  15267344125                       # Cumulative time (in ticks) in various power states
system.cpu0.itb.walker.pwrStateResidencyTicks::UNDEFINED  15267344125                       # Cumulative time (in ticks) in various power states
system.cpu0.itb.rdAccesses                          0                       # TLB accesses on read requests
system.cpu0.itb.wrAccesses                    8905910                       # TLB accesses on write requests
system.cpu0.itb.rdMisses                            0                       # TLB misses on read requests
system.cpu0.itb.wrMisses                        15731                       # TLB misses on write requests
system.cpu0.workload.numSyscalls                   23                       # Number of system calls
system.cpu0.pwrStateResidencyTicks::ON    15267344125                       # Cumulative time (in ticks) in various power states
system.cpu0.numCycles                        30534688                       # number of cpu cycles simulated
system.cpu0.numWorkItemsStarted                     0                       # number of work items this cpu started
system.cpu0.numWorkItemsCompleted                   0                       # number of work items this cpu completed
system.cpu0.fetch.icacheStallCycles           9631741                       # Number of cycles fetch is stalled on an Icache miss
system.cpu0.fetch.Insts                      59550926                       # Number of instructions fetch has processed
system.cpu0.fetch.Branches                   13190700                       # Number of branches that fetch encountered
system.cpu0.fetch.predictedBranches           4564692                       # Number of branches that fetch has predicted taken
system.cpu0.fetch.Cycles                     19728058                       # Number of cycles fetch has run and was not squashing or blocked
system.cpu0.fetch.SquashCycles                2190626                       # Number of cycles fetch has spent squashing
system.cpu0.fetch.MiscStallCycles                8635                       # Number of cycles fetch has spent waiting on interrupts, or bad addresses, or out of MSHRs
system.cpu0.fetch.PendingTrapStallCycles        70678                       # Number of stall cycles due to pending traps
system.cpu0.fetch.CacheLines                  8890179                       # Number of cache lines fetched
system.cpu0.fetch.IcacheSquashes               262930                       # Number of outstanding Icache misses that were squashed
system.cpu0.fetch.rateDist::samples          30534425                       # Number of instructions fetched each cycle (Total)
system.cpu0.fetch.rateDist::mean             3.734587                       # Number of instructions fetched each cycle (Total)
system.cpu0.fetch.rateDist::stdev            3.581087                       # Number of instructions fetched each cycle (Total)
system.cpu0.fetch.rateDist::underflows              0      0.00%      0.00% # Number of instructions fetched each cycle (Total)
system.cpu0.fetch.rateDist::0                12385035     40.56%     40.56% # Number of instructions fetched each cycle (Total)
system.cpu0.fetch.rateDist::1                  858530      2.81%     43.37% # Number of instructions fetched each cycle (Total)
system.cpu0.fetch.rateDist::2                 1231112      4.03%     47.40% # Number of instructions fetched each cycle (Total)
system.cpu0.fetch.rateDist::3                 1410215      4.62%     52.02% # Number of instructions fetched each cycle (Total)
system.cpu0.fetch.rateDist::4                 1119991      3.67%     55.69% # Number of instructions fetched each cycle (Total)
system.cpu0.fetch.rateDist::5                 1106551      3.62%     59.31% # Number of instructions fetched each cycle (Total)
system.cpu0.fetch.rateDist::6                 1017880      3.33%     62.65% # Number of instructions fetched each cycle (Total)
system.cpu0.fetch.rateDist::7                  878834      2.88%     65.53% # Number of instructions fetched each cycle (Total)
system.cpu0.fetch.rateDist::8                10526277     34.47%    100.00% # Number of instructions fetched each cycle (Total)
system.cpu0.fetch.rateDist::overflows               0      0.00%    100.00% # Number of instructions fetched each cycle (Total)
system.cpu0.fetch.rateDist::min_value               0                       # Number of instructions fetched each cycle (Total)
system.cpu0.fetch.rateDist::max_value               8                       # Number of instructions fetched each cycle (Total)
system.cpu0.fetch.rateDist::total            30534425                       # Number of instructions fetched each cycle (Total)
system.cpu0.fetch.branchRate                 0.431991                       # Number of branch fetches per cycle
system.cpu0.fetch.rate                       1.950271                       # Number of inst fetches per cycle
system.cpu0.decode.IdleCycles                 8542148                       # Number of cycles decode is idle
system.cpu0.decode.BlockedCycles              4358972                       # Number of cycles decode is blocked
system.cpu0.decode.RunCycles                 15590255                       # Number of cycles decode is running
system.cpu0.decode.UnblockCycles               947737                       # Number of cycles decode is unblocking
system.cpu0.decode.SquashCycles               1095313                       # Number of cycles decode is squashing
system.cpu0.decode.DecodedInsts             108415034                       # Number of instructions handled by decode
system.cpu0.rename.SquashCycles               1095313                       # Number of cycles rename is squashing
system.cpu0.rename.IdleCycles                 9312110                       # Number of cycles rename is idle
system.cpu0.rename.BlockCycles                3269079                       # Number of cycles rename is blocking
system.cpu0.rename.serializeStallCycles          6876                       # count of cycles rename stalled for serializing inst
system.cpu0.rename.RunCycles                 15702908                       # Number of cycles rename is running
system.cpu0.rename.UnblockCycles              1148139                       # Number of cycles rename is unblocking
system.cpu0.rename.RenamedInsts             103294053                       # Number of instructions processed by rename
system.cpu0.rename.ROBFullEvents                  653                       # Number of times rename has blocked due to ROB full
system.cpu0.rename.IQFullEvents                 70194                       # Number of times rename has blocked due to IQ full
system.cpu0.rename.LQFullEvents                    80                       # Number of times rename has blocked due to LQ full
system.cpu0.rename.SQFullEvents               1022107                       # Number of times rename has blocked due to SQ full
system.cpu0.rename.RenamedOperands          109807554                       # Number of destination operands rename has renamed
system.cpu0.rename.RenameLookups            260004070                       # Number of register rename lookups that rename has made
system.cpu0.rename.int_rename_lookups       155308543                       # Number of integer rename lookups
system.cpu0.rename.fp_rename_lookups          3163647                       # Number of floating rename lookups
system.cpu0.rename.CommittedMaps             67975391                       # Number of HB maps that are committed
system.cpu0.rename.UndoneMaps                41832200                       # Number of HB maps that are undone due to squashing
system.cpu0.rename.serializingInsts               955                       # count of serializing insts renamed
system.cpu0.rename.tempSerializingInsts          1172                       # count of temporary serializing insts renamed
system.cpu0.rename.skidInsts                   888285                       # count of insts added to the skid buffer
system.cpu0.memDep0.insertedLoads            11813670                       # Number of loads inserted to the mem dependence unit.
system.cpu0.memDep0.insertedStores            8891751                       # Number of stores inserted to the mem dependence unit.
system.cpu0.memDep0.conflictingLoads           480969                       # Number of conflicting loads.
system.cpu0.memDep0.conflictingStores          198262                       # Number of conflicting stores.
system.cpu0.iq.iqInstsAdded                  92881528                       # Number of instructions added to the IQ (excludes non-spec)
system.cpu0.iq.iqNonSpecInstsAdded              64917                       # Number of non-speculative instructions added to the IQ
system.cpu0.iq.iqInstsIssued                 82672308                       # Number of instructions issued
system.cpu0.iq.iqSquashedInstsIssued           466904                       # Number of squashed instructions issued
system.cpu0.iq.iqSquashedInstsExamined       29347516                       # Number of squashed instructions iterated over during squash; mainly for profiling
system.cpu0.iq.iqSquashedOperandsExamined     42779628                       # Number of squashed operands that are examined and possibly removed from graph
system.cpu0.iq.iqSquashedNonSpecRemoved         64894                       # Number of squashed non-spec instructions that were removed
system.cpu0.iq.issued_per_cycle::samples     30534425                       # Number of insts issued each cycle
system.cpu0.iq.issued_per_cycle::mean        2.707512                       # Number of insts issued each cycle
system.cpu0.iq.issued_per_cycle::stdev       2.525335                       # Number of insts issued each cycle
system.cpu0.iq.issued_per_cycle::underflows            0      0.00%      0.00% # Number of insts issued each cycle
system.cpu0.iq.issued_per_cycle::0            9920454     32.49%     32.49% # Number of insts issued each cycle
system.cpu0.iq.issued_per_cycle::1            2821320      9.24%     41.73% # Number of insts issued each cycle
system.cpu0.iq.issued_per_cycle::2            3083461     10.10%     51.83% # Number of insts issued each cycle
system.cpu0.iq.issued_per_cycle::3            3081383     10.09%     61.92% # Number of insts issued each cycle
system.cpu0.iq.issued_per_cycle::4            3122294     10.23%     72.14% # Number of insts issued each cycle
system.cpu0.iq.issued_per_cycle::5            2769043      9.07%     81.21% # Number of insts issued each cycle
system.cpu0.iq.issued_per_cycle::6            3076480     10.08%     91.29% # Number of insts issued each cycle
system.cpu0.iq.issued_per_cycle::7            1633274      5.35%     96.64% # Number of insts issued each cycle
system.cpu0.iq.issued_per_cycle::8            1026716      3.36%    100.00% # Number of insts issued each cycle
system.cpu0.iq.issued_per_cycle::overflows            0      0.00%    100.00% # Number of insts issued each cycle
system.cpu0.iq.issued_per_cycle::min_value            0                       # Number of insts issued each cycle
system.cpu0.iq.issued_per_cycle::max_value            8                       # Number of insts issued each cycle
system.cpu0.iq.issued_per_cycle::total       30534425                       # Number of insts issued each cycle
system.cpu0.iq.fu_full::No_OpClass                  0      0.00%      0.00% # attempts to use FU when none available
system.cpu0.iq.fu_full::IntAlu                 802604     73.51%     73.51% # attempts to use FU when none available
system.cpu0.iq.fu_full::IntMult                     0      0.00%     73.51% # attempts to use FU when none available
system.cpu0.iq.fu_full::IntDiv                      0      0.00%     73.51% # attempts to use FU when none available
system.cpu0.iq.fu_full::FloatAdd                14248      1.30%     74.81% # attempts to use FU when none available
system.cpu0.iq.fu_full::FloatCmp                    0      0.00%     74.81% # attempts to use FU when none available
system.cpu0.iq.fu_full::FloatCvt                    0      0.00%     74.81% # attempts to use FU when none available
system.cpu0.iq.fu_full::FloatMult                   0      0.00%     74.81% # attempts to use FU when none available
system.cpu0.iq.fu_full::FloatMultAcc                0      0.00%     74.81% # attempts to use FU when none available
system.cpu0.iq.fu_full::FloatDiv                    0      0.00%     74.81% # attempts to use FU when none available
system.cpu0.iq.fu_full::FloatMisc                   0      0.00%     74.81% # attempts to use FU when none available
system.cpu0.iq.fu_full::FloatSqrt                   0      0.00%     74.81% # attempts to use FU when none available
system.cpu0.iq.fu_full::SimdAdd                     0      0.00%     74.81% # attempts to use FU when none available
system.cpu0.iq.fu_full::SimdAddAcc                  0      0.00%     74.81% # attempts to use FU when none available
system.cpu0.iq.fu_full::SimdAlu                     0      0.00%     74.81% # attempts to use FU when none available
system.cpu0.iq.fu_full::SimdCmp                     0      0.00%     74.81% # attempts to use FU when none available
system.cpu0.iq.fu_full::SimdCvt                     0      0.00%     74.81% # attempts to use FU when none available
system.cpu0.iq.fu_full::SimdMisc                    0      0.00%     74.81% # attempts to use FU when none available
system.cpu0.iq.fu_full::SimdMult                    0      0.00%     74.81% # attempts to use FU when none available
system.cpu0.iq.fu_full::SimdMultAcc                 0      0.00%     74.81% # attempts to use FU when none available
system.cpu0.iq.fu_full::SimdShift                   0      0.00%     74.81% # attempts to use FU when none available
system.cpu0.iq.fu_full::SimdShiftAcc                0      0.00%     74.81% # attempts to use FU when none available
system.cpu0.iq.fu_full::SimdSqrt                    0      0.00%     74.81% # attempts to use FU when none available
system.cpu0.iq.fu_full::SimdFloatAdd                0      0.00%     74.81% # attempts to use FU when none available
system.cpu0.iq.fu_full::SimdFloatAlu                0      0.00%     74.81% # attempts to use FU when none available
system.cpu0.iq.fu_full::SimdFloatCmp                0      0.00%     74.81% # attempts to use FU when none available
system.cpu0.iq.fu_full::SimdFloatCvt                0      0.00%     74.81% # attempts to use FU when none available
system.cpu0.iq.fu_full::SimdFloatDiv                0      0.00%     74.81% # attempts to use FU when none available
system.cpu0.iq.fu_full::SimdFloatMisc               0      0.00%     74.81% # attempts to use FU when none available
system.cpu0.iq.fu_full::SimdFloatMult               0      0.00%     74.81% # attempts to use FU when none available
system.cpu0.iq.fu_full::SimdFloatMultAcc            0      0.00%     74.81% # attempts to use FU when none available
system.cpu0.iq.fu_full::SimdFloatSqrt               0      0.00%     74.81% # attempts to use FU when none available
system.cpu0.iq.fu_full::MemRead                102856      9.42%     84.23% # attempts to use FU when none available
system.cpu0.iq.fu_full::MemWrite                82428      7.55%     91.78% # attempts to use FU when none available
system.cpu0.iq.fu_full::FloatMemRead              805      0.07%     91.85% # attempts to use FU when none available
system.cpu0.iq.fu_full::FloatMemWrite           88944      8.15%    100.00% # attempts to use FU when none available
system.cpu0.iq.fu_full::IprAccess                   0      0.00%    100.00% # attempts to use FU when none available
system.cpu0.iq.fu_full::InstPrefetch                0      0.00%    100.00% # attempts to use FU when none available
system.cpu0.iq.FU_type_0::No_OpClass           505226      0.61%      0.61% # Type of FU issued
system.cpu0.iq.FU_type_0::IntAlu             62624119     75.75%     76.36% # Type of FU issued
system.cpu0.iq.FU_type_0::IntMult               75523      0.09%     76.45% # Type of FU issued
system.cpu0.iq.FU_type_0::IntDiv                85787      0.10%     76.56% # Type of FU issued
system.cpu0.iq.FU_type_0::FloatAdd            1158477      1.40%     77.96% # Type of FU issued
system.cpu0.iq.FU_type_0::FloatCmp                  0      0.00%     77.96% # Type of FU issued
system.cpu0.iq.FU_type_0::FloatCvt                  0      0.00%     77.96% # Type of FU issued
system.cpu0.iq.FU_type_0::FloatMult                 0      0.00%     77.96% # Type of FU issued
system.cpu0.iq.FU_type_0::FloatMultAcc              0      0.00%     77.96% # Type of FU issued
system.cpu0.iq.FU_type_0::FloatDiv                  0      0.00%     77.96% # Type of FU issued
system.cpu0.iq.FU_type_0::FloatMisc                 0      0.00%     77.96% # Type of FU issued
system.cpu0.iq.FU_type_0::FloatSqrt                 0      0.00%     77.96% # Type of FU issued
system.cpu0.iq.FU_type_0::SimdAdd                   0      0.00%     77.96% # Type of FU issued
system.cpu0.iq.FU_type_0::SimdAddAcc                0      0.00%     77.96% # Type of FU issued
system.cpu0.iq.FU_type_0::SimdAlu                   0      0.00%     77.96% # Type of FU issued
system.cpu0.iq.FU_type_0::SimdCmp                   0      0.00%     77.96% # Type of FU issued
system.cpu0.iq.FU_type_0::SimdCvt                   0      0.00%     77.96% # Type of FU issued
system.cpu0.iq.FU_type_0::SimdMisc                  0      0.00%     77.96% # Type of FU issued
system.cpu0.iq.FU_type_0::SimdMult                  0      0.00%     77.96% # Type of FU issued
system.cpu0.iq.FU_type_0::SimdMultAcc               0      0.00%     77.96% # Type of FU issued
system.cpu0.iq.FU_type_0::SimdShift                 0      0.00%     77.96% # Type of FU issued
system.cpu0.iq.FU_type_0::SimdShiftAcc              0      0.00%     77.96% # Type of FU issued
system.cpu0.iq.FU_type_0::SimdSqrt                  0      0.00%     77.96% # Type of FU issued
system.cpu0.iq.FU_type_0::SimdFloatAdd              0      0.00%     77.96% # Type of FU issued
system.cpu0.iq.FU_type_0::SimdFloatAlu              0      0.00%     77.96% # Type of FU issued
system.cpu0.iq.FU_type_0::SimdFloatCmp              0      0.00%     77.96% # Type of FU issued
system.cpu0.iq.FU_type_0::SimdFloatCvt              0      0.00%     77.96% # Type of FU issued
system.cpu0.iq.FU_type_0::SimdFloatDiv              0      0.00%     77.96% # Type of FU issued
system.cpu0.iq.FU_type_0::SimdFloatMisc             0      0.00%     77.96% # Type of FU issued
system.cpu0.iq.FU_type_0::SimdFloatMult             0      0.00%     77.96% # Type of FU issued
system.cpu0.iq.FU_type_0::SimdFloatMultAcc            0      0.00%     77.96% # Type of FU issued
system.cpu0.iq.FU_type_0::SimdFloatSqrt             0      0.00%     77.96% # Type of FU issued
system.cpu0.iq.FU_type_0::MemRead            10023813     12.12%     90.08% # Type of FU issued
system.cpu0.iq.FU_type_0::MemWrite            7522436      9.10%     99.18% # Type of FU issued
system.cpu0.iq.FU_type_0::FloatMemRead         393079      0.48%     99.66% # Type of FU issued
system.cpu0.iq.FU_type_0::FloatMemWrite        283848      0.34%    100.00% # Type of FU issued
system.cpu0.iq.FU_type_0::IprAccess                 0      0.00%    100.00% # Type of FU issued
system.cpu0.iq.FU_type_0::InstPrefetch              0      0.00%    100.00% # Type of FU issued
system.cpu0.iq.FU_type_0::total              82672308                       # Type of FU issued
system.cpu0.iq.rate                          2.707488                       # Inst issue rate
system.cpu0.iq.fu_busy_cnt                    1091885                       # FU busy when requested
system.cpu0.iq.fu_busy_rate                  0.013207                       # FU busy rate (busy events/executed inst)
system.cpu0.iq.int_inst_queue_reads         193509783                       # Number of integer instruction queue reads
system.cpu0.iq.int_inst_queue_writes        119186509                       # Number of integer instruction queue writes
system.cpu0.iq.int_inst_queue_wakeup_accesses     77160742                       # Number of integer instruction queue wakeup accesses
system.cpu0.iq.fp_inst_queue_reads            3928048                       # Number of floating instruction queue reads
system.cpu0.iq.fp_inst_queue_writes           3108519                       # Number of floating instruction queue writes
system.cpu0.iq.fp_inst_queue_wakeup_accesses      1778596                       # Number of floating instruction queue wakeup accesses
system.cpu0.iq.vec_inst_queue_reads                 0                       # Number of vector instruction queue reads
system.cpu0.iq.vec_inst_queue_writes                0                       # Number of vector instruction queue writes
system.cpu0.iq.vec_inst_queue_wakeup_accesses            0                       # Number of vector instruction queue wakeup accesses
system.cpu0.iq.int_alu_accesses              81276515                       # Number of integer alu accesses
system.cpu0.iq.fp_alu_accesses                1982452                       # Number of floating point alu accesses
system.cpu0.iq.vec_alu_accesses                     0                       # Number of vector alu accesses
system.cpu0.iew.lsq.thread0.forwLoads         1222607                       # Number of loads that had data forwarded from stores
system.cpu0.iew.lsq.thread0.invAddrLoads            0                       # Number of loads ignored due to an invalid address
system.cpu0.iew.lsq.thread0.squashedLoads      4196603                       # Number of loads squashed
system.cpu0.iew.lsq.thread0.ignoredResponses        10295                       # Number of memory responses ignored because the instruction is squashed
system.cpu0.iew.lsq.thread0.memOrderViolation         2366                       # Number of memory ordering violations
system.cpu0.iew.lsq.thread0.squashedStores      2662421                       # Number of stores squashed
system.cpu0.iew.lsq.thread0.invAddrSwpfs            0                       # Number of software prefetches ignored due to an invalid address
system.cpu0.iew.lsq.thread0.blockedLoads            0                       # Number of blocked loads due to partial load-store forwarding
system.cpu0.iew.lsq.thread0.rescheduledLoads          141                       # Number of loads that were rescheduled
system.cpu0.iew.lsq.thread0.cacheBlocked            0                       # Number of times an access to memory failed due to the cache being blocked
system.cpu0.iew.iewIdleCycles                       0                       # Number of cycles IEW is idle
system.cpu0.iew.iewSquashCycles               1095313                       # Number of cycles IEW is squashing
system.cpu0.iew.iewBlockCycles                3318053                       # Number of cycles IEW is blocking
system.cpu0.iew.iewUnblockCycles                 6372                       # Number of cycles IEW is unblocking
system.cpu0.iew.iewDispatchedInsts           92946445                       # Number of instructions dispatched to IQ
system.cpu0.iew.iewDispSquashedInsts            16361                       # Number of squashed instructions skipped by dispatch
system.cpu0.iew.iewDispLoadInsts             11813670                       # Number of dispatched load instructions
system.cpu0.iew.iewDispStoreInsts             8891751                       # Number of dispatched store instructions
system.cpu0.iew.iewDispNonSpecInsts             22686                       # Number of dispatched non-speculative instructions
system.cpu0.iew.iewIQFullEvents                   154                       # Number of times the IQ has become full, causing a stall
system.cpu0.iew.iewLSQFullEvents                 6127                       # Number of times the LSQ has become full, causing a stall
system.cpu0.iew.memOrderViolationEvents          2366                       # Number of memory order violations
system.cpu0.iew.predictedTakenIncorrect        305544                       # Number of branches that were predicted taken incorrectly
system.cpu0.iew.predictedNotTakenIncorrect      1133009                       # Number of branches that were predicted not taken incorrectly
system.cpu0.iew.branchMispredicts             1438553                       # Number of branch mispredicts detected at execute
system.cpu0.iew.iewExecutedInsts             80083022                       # Number of executed instructions
system.cpu0.iew.iewExecLoadInsts              9870764                       # Number of load instructions executed
system.cpu0.iew.iewExecSquashedInsts          2589287                       # Number of squashed instructions skipped in execute
system.cpu0.iew.exec_swp                            0                       # number of swp insts executed
system.cpu0.iew.exec_nop                            0                       # number of nop insts executed
system.cpu0.iew.exec_refs                    17322853                       # number of memory reference insts executed
system.cpu0.iew.exec_branches                 8663761                       # Number of branches executed
system.cpu0.iew.exec_stores                   7452089                       # Number of stores executed
system.cpu0.iew.exec_rate                    2.622690                       # Inst execution rate
system.cpu0.iew.wb_sent                      79541445                       # cumulative count of insts sent to commit
system.cpu0.iew.wb_count                     78939338                       # cumulative count of insts written-back
system.cpu0.iew.wb_producers                 55111936                       # num instructions producing a value
system.cpu0.iew.wb_consumers                 86341748                       # num instructions consuming a value
system.cpu0.iew.wb_rate                      2.585235                       # insts written-back per cycle
system.cpu0.iew.wb_fanout                    0.638300                       # average fanout of values written-back
system.cpu0.commit.commitSquashedInsts       29347916                       # The number of squashed insts skipped by commit
system.cpu0.commit.commitNonSpecStalls             23                       # The number of times commit has been forced to stall to communicate backwards
system.cpu0.commit.branchMispredicts          1094649                       # The number of times a branch was mispredicted
system.cpu0.commit.committed_per_cycle::samples     26124548                       # Number of insts commited each cycle
system.cpu0.commit.committed_per_cycle::mean     2.434452                       # Number of insts commited each cycle
system.cpu0.commit.committed_per_cycle::stdev     2.732207                       # Number of insts commited each cycle
system.cpu0.commit.committed_per_cycle::underflows            0      0.00%      0.00% # Number of insts commited each cycle
system.cpu0.commit.committed_per_cycle::0      9461385     36.22%     36.22% # Number of insts commited each cycle
system.cpu0.commit.committed_per_cycle::1      3754936     14.37%     50.59% # Number of insts commited each cycle
system.cpu0.commit.committed_per_cycle::2      2611793     10.00%     60.59% # Number of insts commited each cycle
system.cpu0.commit.committed_per_cycle::3      3551161     13.59%     74.18% # Number of insts commited each cycle
system.cpu0.commit.committed_per_cycle::4      1118041      4.28%     78.46% # Number of insts commited each cycle
system.cpu0.commit.committed_per_cycle::5      1146673      4.39%     82.85% # Number of insts commited each cycle
system.cpu0.commit.committed_per_cycle::6       809562      3.10%     85.95% # Number of insts commited each cycle
system.cpu0.commit.committed_per_cycle::7       463923      1.78%     87.72% # Number of insts commited each cycle
system.cpu0.commit.committed_per_cycle::8      3207074     12.28%    100.00% # Number of insts commited each cycle
system.cpu0.commit.committed_per_cycle::overflows            0      0.00%    100.00% # Number of insts commited each cycle
system.cpu0.commit.committed_per_cycle::min_value            0                       # Number of insts commited each cycle
system.cpu0.commit.committed_per_cycle::max_value            8                       # Number of insts commited each cycle
system.cpu0.commit.committed_per_cycle::total     26124548                       # Number of insts commited each cycle
system.cpu0.commit.committedInsts            33582165                       # Number of instructions committed
system.cpu0.commit.committedOps              63598959                       # Number of ops (including micro ops) committed
system.cpu0.commit.swp_count                        0                       # Number of s/w prefetches committed
system.cpu0.commit.refs                      13846406                       # Number of memory references committed
system.cpu0.commit.loads                      7617074                       # Number of loads committed
system.cpu0.commit.membars                          0                       # Number of memory barriers committed
system.cpu0.commit.branches                   7401151                       # Number of branches committed
system.cpu0.commit.vec_insts                        0                       # Number of committed Vector instructions.
system.cpu0.commit.fp_insts                   1293807                       # Number of committed floating point instructions.
system.cpu0.commit.int_insts                 62627078                       # Number of committed integer instructions.
system.cpu0.commit.function_calls              459465                       # Number of function calls committed.
system.cpu0.commit.op_class_0::No_OpClass       257674      0.41%      0.41% # Class of committed instruction
system.cpu0.commit.op_class_0::IntAlu        48388347     76.08%     76.49% # Class of committed instruction
system.cpu0.commit.op_class_0::IntMult          53898      0.08%     76.57% # Class of committed instruction
system.cpu0.commit.op_class_0::IntDiv           75306      0.12%     76.69% # Class of committed instruction
system.cpu0.commit.op_class_0::FloatAdd        977328      1.54%     78.23% # Class of committed instruction
system.cpu0.commit.op_class_0::FloatCmp             0      0.00%     78.23% # Class of committed instruction
system.cpu0.commit.op_class_0::FloatCvt             0      0.00%     78.23% # Class of committed instruction
system.cpu0.commit.op_class_0::FloatMult            0      0.00%     78.23% # Class of committed instruction
system.cpu0.commit.op_class_0::FloatMultAcc            0      0.00%     78.23% # Class of committed instruction
system.cpu0.commit.op_class_0::FloatDiv             0      0.00%     78.23% # Class of committed instruction
system.cpu0.commit.op_class_0::FloatMisc            0      0.00%     78.23% # Class of committed instruction
system.cpu0.commit.op_class_0::FloatSqrt            0      0.00%     78.23% # Class of committed instruction
system.cpu0.commit.op_class_0::SimdAdd              0      0.00%     78.23% # Class of committed instruction
system.cpu0.commit.op_class_0::SimdAddAcc            0      0.00%     78.23% # Class of committed instruction
system.cpu0.commit.op_class_0::SimdAlu              0      0.00%     78.23% # Class of committed instruction
system.cpu0.commit.op_class_0::SimdCmp              0      0.00%     78.23% # Class of committed instruction
system.cpu0.commit.op_class_0::SimdCvt              0      0.00%     78.23% # Class of committed instruction
system.cpu0.commit.op_class_0::SimdMisc             0      0.00%     78.23% # Class of committed instruction
system.cpu0.commit.op_class_0::SimdMult             0      0.00%     78.23% # Class of committed instruction
system.cpu0.commit.op_class_0::SimdMultAcc            0      0.00%     78.23% # Class of committed instruction
system.cpu0.commit.op_class_0::SimdShift            0      0.00%     78.23% # Class of committed instruction
system.cpu0.commit.op_class_0::SimdShiftAcc            0      0.00%     78.23% # Class of committed instruction
system.cpu0.commit.op_class_0::SimdSqrt             0      0.00%     78.23% # Class of committed instruction
system.cpu0.commit.op_class_0::SimdFloatAdd            0      0.00%     78.23% # Class of committed instruction
system.cpu0.commit.op_class_0::SimdFloatAlu            0      0.00%     78.23% # Class of committed instruction
system.cpu0.commit.op_class_0::SimdFloatCmp            0      0.00%     78.23% # Class of committed instruction
system.cpu0.commit.op_class_0::SimdFloatCvt            0      0.00%     78.23% # Class of committed instruction
system.cpu0.commit.op_class_0::SimdFloatDiv            0      0.00%     78.23% # Class of committed instruction
system.cpu0.commit.op_class_0::SimdFloatMisc            0      0.00%     78.23% # Class of committed instruction
system.cpu0.commit.op_class_0::SimdFloatMult            0      0.00%     78.23% # Class of committed instruction
system.cpu0.commit.op_class_0::SimdFloatMultAcc            0      0.00%     78.23% # Class of committed instruction
system.cpu0.commit.op_class_0::SimdFloatSqrt            0      0.00%     78.23% # Class of committed instruction
system.cpu0.commit.op_class_0::MemRead        7343646     11.55%     89.78% # Class of committed instruction
system.cpu0.commit.op_class_0::MemWrite       6229332      9.79%     99.57% # Class of committed instruction
system.cpu0.commit.op_class_0::FloatMemRead       273428      0.43%    100.00% # Class of committed instruction
system.cpu0.commit.op_class_0::FloatMemWrite            0      0.00%    100.00% # Class of committed instruction
system.cpu0.commit.op_class_0::IprAccess            0      0.00%    100.00% # Class of committed instruction
system.cpu0.commit.op_class_0::InstPrefetch            0      0.00%    100.00% # Class of committed instruction
system.cpu0.commit.op_class_0::total         63598959                       # Class of committed instruction
system.cpu0.commit.bw_lim_events              3207074                       # number cycles where commit BW limit reached
system.cpu0.rob.rob_reads                   115864349                       # The number of ROB reads
system.cpu0.rob.rob_writes                  190389602                       # The number of ROB writes
system.cpu0.timesIdled                             27                       # Number of times that the entire CPU went into an idle state and unscheduled itself
system.cpu0.idleCycles                            263                       # Total number of cycles that the CPU has spent unscheduled due to idling
system.cpu0.committedInsts                   33582165                       # Number of Instructions Simulated
system.cpu0.committedOps                     63598959                       # Number of Ops (including micro ops) Simulated
system.cpu0.cpi                              0.909253                       # CPI: Cycles Per Instruction
system.cpu0.cpi_total                        0.909253                       # CPI: Total CPI of All Threads
system.cpu0.ipc                              1.099804                       # IPC: Instructions Per Cycle
system.cpu0.ipc_total                        1.099804                       # IPC: Total IPC of All Threads
system.cpu0.int_regfile_reads               115775477                       # number of integer regfile reads
system.cpu0.int_regfile_writes               61846142                       # number of integer regfile writes
system.cpu0.fp_regfile_reads                  2504728                       # number of floating regfile reads
system.cpu0.fp_regfile_writes                 1234758                       # number of floating regfile writes
system.cpu0.cc_regfile_reads                 40270058                       # number of cc regfile reads
system.cpu0.cc_regfile_writes                21117879                       # number of cc regfile writes
system.cpu0.misc_regfile_reads               35170190                       # number of misc regfile reads
system.cpu0.dcache.tags.pwrStateResidencyTicks::UNDEFINED  15267344125                       # Cumulative time (in ticks) in various power states
system.cpu0.dcache.tags.replacements             5442                       # number of replacements
system.cpu0.dcache.tags.tagsinuse                1024                       # Cycle average of tags in use
system.cpu0.dcache.tags.total_refs             574231                       # Total number of references to valid blocks.
system.cpu0.dcache.tags.sampled_refs             5442                       # Sample count of references to valid blocks.
system.cpu0.dcache.tags.avg_refs           105.518376                       # Average number of references to valid blocks.
system.cpu0.dcache.tags.warmup_cycle                0                       # Cycle when the warmup percentage was hit.
system.cpu0.dcache.tags.occ_blocks::cpu0.data         1024                       # Average occupied blocks per requestor
system.cpu0.dcache.tags.occ_percent::cpu0.data            1                       # Average percentage of cache occupancy
system.cpu0.dcache.tags.occ_percent::total            1                       # Average percentage of cache occupancy
system.cpu0.dcache.tags.occ_task_id_blocks::1024         1024                       # Occupied blocks per task id
system.cpu0.dcache.tags.age_task_id_blocks_1024::0            3                       # Occupied blocks per task id
system.cpu0.dcache.tags.age_task_id_blocks_1024::1           26                       # Occupied blocks per task id
system.cpu0.dcache.tags.age_task_id_blocks_1024::2          252                       # Occupied blocks per task id
system.cpu0.dcache.tags.age_task_id_blocks_1024::3          524                       # Occupied blocks per task id
system.cpu0.dcache.tags.age_task_id_blocks_1024::4          219                       # Occupied blocks per task id
system.cpu0.dcache.tags.occ_task_id_percent::1024            1                       # Percentage of cache occupancy per task id
system.cpu0.dcache.tags.tag_accesses         59018406                       # Number of tag accesses
system.cpu0.dcache.tags.data_accesses        59018406                       # Number of data accesses
system.cpu0.dcache.pwrStateResidencyTicks::UNDEFINED  15267344125                       # Cumulative time (in ticks) in various power states
system.cpu0.dcache.ReadReq_hits::cpu0.data      8515823                       # number of ReadReq hits
system.cpu0.dcache.ReadReq_hits::total        8515823                       # number of ReadReq hits
system.cpu0.dcache.WriteReq_hits::cpu0.data      6229147                       # number of WriteReq hits
system.cpu0.dcache.WriteReq_hits::total       6229147                       # number of WriteReq hits
system.cpu0.dcache.demand_hits::cpu0.data     14744970                       # number of demand (read+write) hits
system.cpu0.dcache.demand_hits::total        14744970                       # number of demand (read+write) hits
system.cpu0.dcache.overall_hits::cpu0.data     14744970                       # number of overall hits
system.cpu0.dcache.overall_hits::total       14744970                       # number of overall hits
system.cpu0.dcache.ReadReq_misses::cpu0.data         4964                       # number of ReadReq misses
system.cpu0.dcache.ReadReq_misses::total         4964                       # number of ReadReq misses
system.cpu0.dcache.WriteReq_misses::cpu0.data         3307                       # number of WriteReq misses
system.cpu0.dcache.WriteReq_misses::total         3307                       # number of WriteReq misses
system.cpu0.dcache.demand_misses::cpu0.data         8271                       # number of demand (read+write) misses
system.cpu0.dcache.demand_misses::total          8271                       # number of demand (read+write) misses
system.cpu0.dcache.overall_misses::cpu0.data         8271                       # number of overall misses
system.cpu0.dcache.overall_misses::total         8271                       # number of overall misses
system.cpu0.dcache.ReadReq_miss_latency::cpu0.data    167735000                       # number of ReadReq miss cycles
system.cpu0.dcache.ReadReq_miss_latency::total    167735000                       # number of ReadReq miss cycles
system.cpu0.dcache.WriteReq_miss_latency::cpu0.data    600502500                       # number of WriteReq miss cycles
system.cpu0.dcache.WriteReq_miss_latency::total    600502500                       # number of WriteReq miss cycles
system.cpu0.dcache.demand_miss_latency::cpu0.data    768237500                       # number of demand (read+write) miss cycles
system.cpu0.dcache.demand_miss_latency::total    768237500                       # number of demand (read+write) miss cycles
system.cpu0.dcache.overall_miss_latency::cpu0.data    768237500                       # number of overall miss cycles
system.cpu0.dcache.overall_miss_latency::total    768237500                       # number of overall miss cycles
system.cpu0.dcache.ReadReq_accesses::cpu0.data      8520787                       # number of ReadReq accesses(hits+misses)
system.cpu0.dcache.ReadReq_accesses::total      8520787                       # number of ReadReq accesses(hits+misses)
system.cpu0.dcache.WriteReq_accesses::cpu0.data      6232454                       # number of WriteReq accesses(hits+misses)
system.cpu0.dcache.WriteReq_accesses::total      6232454                       # number of WriteReq accesses(hits+misses)
system.cpu0.dcache.demand_accesses::cpu0.data     14753241                       # number of demand (read+write) accesses
system.cpu0.dcache.demand_accesses::total     14753241                       # number of demand (read+write) accesses
system.cpu0.dcache.overall_accesses::cpu0.data     14753241                       # number of overall (read+write) accesses
system.cpu0.dcache.overall_accesses::total     14753241                       # number of overall (read+write) accesses
system.cpu0.dcache.ReadReq_miss_rate::cpu0.data     0.000583                       # miss rate for ReadReq accesses
system.cpu0.dcache.ReadReq_miss_rate::total     0.000583                       # miss rate for ReadReq accesses
system.cpu0.dcache.WriteReq_miss_rate::cpu0.data     0.000531                       # miss rate for WriteReq accesses
system.cpu0.dcache.WriteReq_miss_rate::total     0.000531                       # miss rate for WriteReq accesses
system.cpu0.dcache.demand_miss_rate::cpu0.data     0.000561                       # miss rate for demand accesses
[...]
system.l2.ReadSharedReq_miss_rate::cpu0.data     0.255771                       # miss rate for ReadSharedReq accesses
system.l2.ReadSharedReq_miss_rate::total     0.255771                       # miss rate for ReadSharedReq accesses
system.l2.demand_miss_rate::cpu0.inst        0.004418                       # miss rate for demand accesses
system.l2.demand_miss_rate::cpu0.data        0.703050                       # miss rate for demand accesses
system.l2.demand_miss_rate::total            0.625551                       # miss rate for demand accesses
system.l2.overall_miss_rate::cpu0.inst       0.004418                       # miss rate for overall accesses
system.l2.overall_miss_rate::cpu0.data       0.703050                       # miss rate for overall accesses
system.l2.overall_miss_rate::total           0.625551                       # miss rate for overall accesses
system.l2.ReadExReq_avg_miss_latency::cpu0.data 179701.253056                       # average ReadExReq miss latency
system.l2.ReadExReq_avg_miss_latency::total 179701.253056                       # average ReadExReq miss latency
system.l2.ReadCleanReq_avg_miss_latency::cpu0.inst 89833.333333                       # average ReadCleanReq miss latency
system.l2.ReadCleanReq_avg_miss_latency::total 89833.333333                       # average ReadCleanReq miss latency
system.l2.ReadSharedReq_avg_miss_latency::cpu0.data 124228.339350                       # average ReadSharedReq miss latency
system.l2.ReadSharedReq_avg_miss_latency::total 124228.339350                       # average ReadSharedReq miss latency
system.l2.demand_avg_miss_latency::cpu0.inst 89833.333333                       # average overall miss latency
system.l2.demand_avg_miss_latency::cpu0.data 171668.844746                       # average overall miss latency
system.l2.demand_avg_miss_latency::total 171604.727083                       # average overall miss latency
system.l2.overall_avg_miss_latency::cpu0.inst 89833.333333                       # average overall miss latency
system.l2.overall_avg_miss_latency::cpu0.data 171668.844746                       # average overall miss latency
system.l2.overall_avg_miss_latency::total 171604.727083                       # average overall miss latency
system.l2.blocked_cycles::no_mshrs                  0                       # number of cycles access was blocked
system.l2.blocked_cycles::no_targets                0                       # number of cycles access was blocked
system.l2.blocked::no_mshrs                         0                       # number of cycles access was blocked
system.l2.blocked::no_targets                       0                       # number of cycles access was blocked
system.l2.avg_blocked_cycles::no_mshrs            nan                       # average number of cycles each access was blocked
system.l2.avg_blocked_cycles::no_targets          nan                       # average number of cycles each access was blocked
system.l2.writebacks::writebacks                 3680                       # number of writebacks
system.l2.writebacks::total                      3680                       # number of writebacks
system.l2.CleanEvict_mshr_misses::writebacks            2                       # number of CleanEvict MSHR misses
system.l2.CleanEvict_mshr_misses::total             2                       # number of CleanEvict MSHR misses
system.l2.ReadExReq_mshr_misses::cpu0.data         3272                       # number of ReadExReq MSHR misses
system.l2.ReadExReq_mshr_misses::total           3272                       # number of ReadExReq MSHR misses
system.l2.ReadCleanReq_mshr_misses::cpu0.inst            3                       # number of ReadCleanReq MSHR misses
system.l2.ReadCleanReq_mshr_misses::total            3                       # number of ReadCleanReq MSHR misses
system.l2.ReadSharedReq_mshr_misses::cpu0.data          554                       # number of ReadSharedReq MSHR misses
system.l2.ReadSharedReq_mshr_misses::total          554                       # number of ReadSharedReq MSHR misses
system.l2.demand_mshr_misses::cpu0.inst             3                       # number of demand (read+write) MSHR misses
system.l2.demand_mshr_misses::cpu0.data          3826                       # number of demand (read+write) MSHR misses
system.l2.demand_mshr_misses::total              3829                       # number of demand (read+write) MSHR misses
system.l2.overall_mshr_misses::cpu0.inst            3                       # number of overall MSHR misses
system.l2.overall_mshr_misses::cpu0.data         3826                       # number of overall MSHR misses
system.l2.overall_mshr_misses::total             3829                       # number of overall MSHR misses
system.l2.ReadExReq_mshr_miss_latency::cpu0.data    555262500                       # number of ReadExReq MSHR miss cycles
system.l2.ReadExReq_mshr_miss_latency::total    555262500                       # number of ReadExReq MSHR miss cycles
system.l2.ReadCleanReq_mshr_miss_latency::cpu0.inst       239500                       # number of ReadCleanReq MSHR miss cycles
system.l2.ReadCleanReq_mshr_miss_latency::total       239500                       # number of ReadCleanReq MSHR miss cycles
system.l2.ReadSharedReq_mshr_miss_latency::cpu0.data     63282500                       # number of ReadSharedReq MSHR miss cycles
system.l2.ReadSharedReq_mshr_miss_latency::total     63282500                       # number of ReadSharedReq MSHR miss cycles
system.l2.demand_mshr_miss_latency::cpu0.inst       239500                       # number of demand (read+write) MSHR miss cycles
system.l2.demand_mshr_miss_latency::cpu0.data    618545000                       # number of demand (read+write) MSHR miss cycles
system.l2.demand_mshr_miss_latency::total    618784500                       # number of demand (read+write) MSHR miss cycles
system.l2.overall_mshr_miss_latency::cpu0.inst       239500                       # number of overall MSHR miss cycles
system.l2.overall_mshr_miss_latency::cpu0.data    618545000                       # number of overall MSHR miss cycles
system.l2.overall_mshr_miss_latency::total    618784500                       # number of overall MSHR miss cycles
system.l2.CleanEvict_mshr_miss_rate::writebacks          inf                       # mshr miss rate for CleanEvict accesses
system.l2.CleanEvict_mshr_miss_rate::total          inf                       # mshr miss rate for CleanEvict accesses
system.l2.ReadExReq_mshr_miss_rate::cpu0.data     0.998779                       # mshr miss rate for ReadExReq accesses
system.l2.ReadExReq_mshr_miss_rate::total     0.998779                       # mshr miss rate for ReadExReq accesses
system.l2.ReadCleanReq_mshr_miss_rate::cpu0.inst     0.004418                       # mshr miss rate for ReadCleanReq accesses
system.l2.ReadCleanReq_mshr_miss_rate::total     0.004418                       # mshr miss rate for ReadCleanReq accesses
system.l2.ReadSharedReq_mshr_miss_rate::cpu0.data     0.255771                       # mshr miss rate for ReadSharedReq accesses
system.l2.ReadSharedReq_mshr_miss_rate::total     0.255771                       # mshr miss rate for ReadSharedReq accesses
system.l2.demand_mshr_miss_rate::cpu0.inst     0.004418                       # mshr miss rate for demand accesses
system.l2.demand_mshr_miss_rate::cpu0.data     0.703050                       # mshr miss rate for demand accesses
system.l2.demand_mshr_miss_rate::total       0.625551                       # mshr miss rate for demand accesses
system.l2.overall_mshr_miss_rate::cpu0.inst     0.004418                       # mshr miss rate for overall accesses
system.l2.overall_mshr_miss_rate::cpu0.data     0.703050                       # mshr miss rate for overall accesses
system.l2.overall_mshr_miss_rate::total      0.625551                       # mshr miss rate for overall accesses
system.l2.ReadExReq_avg_mshr_miss_latency::cpu0.data 169701.253056                       # average ReadExReq mshr miss latency
system.l2.ReadExReq_avg_mshr_miss_latency::total 169701.253056                       # average ReadExReq mshr miss latency
system.l2.ReadCleanReq_avg_mshr_miss_latency::cpu0.inst 79833.333333                       # average ReadCleanReq mshr miss latency
system.l2.ReadCleanReq_avg_mshr_miss_latency::total 79833.333333                       # average ReadCleanReq mshr miss latency
system.l2.ReadSharedReq_avg_mshr_miss_latency::cpu0.data 114228.339350                       # average ReadSharedReq mshr miss latency
system.l2.ReadSharedReq_avg_mshr_miss_latency::total 114228.339350                       # average ReadSharedReq mshr miss latency
system.l2.demand_avg_mshr_miss_latency::cpu0.inst 79833.333333                       # average overall mshr miss latency
system.l2.demand_avg_mshr_miss_latency::cpu0.data 161668.844746                       # average overall mshr miss latency
system.l2.demand_avg_mshr_miss_latency::total 161604.727083                       # average overall mshr miss latency
system.l2.overall_avg_mshr_miss_latency::cpu0.inst 79833.333333                       # average overall mshr miss latency
system.l2.overall_avg_mshr_miss_latency::cpu0.data 161668.844746                       # average overall mshr miss latency
system.l2.overall_avg_mshr_miss_latency::total 161604.727083                       # average overall mshr miss latency
system.membus.snoop_filter.tot_requests          7585                       # Total number of requests made to the snoop filter.
system.membus.snoop_filter.hit_single_requests         3756                       # Number of requests hitting in the snoop filter with a single holder of the requested data.
system.membus.snoop_filter.hit_multi_requests            0                       # Number of requests hitting in the snoop filter with multiple (>1) holders of the requested data.
system.membus.snoop_filter.tot_snoops               0                       # Total number of snoops made to the snoop filter.
system.membus.snoop_filter.hit_single_snoops            0                       # Number of snoops hitting in the snoop filter with a single holder of the requested data.
system.membus.snoop_filter.hit_multi_snoops            0                       # Number of snoops hitting in the snoop filter with multiple (>1) holders of the requested data.
system.membus.pwrStateResidencyTicks::UNDEFINED  15267344125                       # Cumulative time (in ticks) in various power states
system.membus.trans_dist::ReadResp                557                       # Transaction distribution
system.membus.trans_dist::WritebackDirty         3680                       # Transaction distribution
system.membus.trans_dist::CleanEvict               76                       # Transaction distribution
system.membus.trans_dist::ReadExReq              3272                       # Transaction distribution
system.membus.trans_dist::ReadExResp             3272                       # Transaction distribution
system.membus.trans_dist::ReadSharedReq           557                       # Transaction distribution
system.membus.pkt_count_system.l2.mem_side::system.mem_ctrls.port        11414                       # Packet count per connected master and slave (bytes)
system.membus.pkt_count_system.l2.mem_side::total        11414                       # Packet count per connected master and slave (bytes)
system.membus.pkt_count::total                  11414                       # Packet count per connected master and slave (bytes)
system.membus.pkt_size_system.l2.mem_side::system.mem_ctrls.port       480576                       # Cumulative packet size per connected master and slave (bytes)
system.membus.pkt_size_system.l2.mem_side::total       480576                       # Cumulative packet size per connected master and slave (bytes)
system.membus.pkt_size::total                  480576                       # Cumulative packet size per connected master and slave (bytes)
system.membus.snoops                                0                       # Total snoops (count)
system.membus.snoopTraffic                          0                       # Total snoop traffic (bytes)
system.membus.snoop_fanout::samples              3829                       # Request fanout histogram
system.membus.snoop_fanout::mean                    0                       # Request fanout histogram
system.membus.snoop_fanout::stdev                   0                       # Request fanout histogram
system.membus.snoop_fanout::underflows              0      0.00%      0.00% # Request fanout histogram
system.membus.snoop_fanout::0                    3829    100.00%    100.00% # Request fanout histogram
system.membus.snoop_fanout::1                       0      0.00%    100.00% # Request fanout histogram
system.membus.snoop_fanout::overflows               0      0.00%    100.00% # Request fanout histogram
system.membus.snoop_fanout::min_value               0                       # Request fanout histogram
system.membus.snoop_fanout::max_value               0                       # Request fanout histogram
system.membus.snoop_fanout::total                3829                       # Request fanout histogram
system.membus.reqLayer8.occupancy            23264000                       # Layer occupancy (ticks)
system.membus.reqLayer8.utilization               0.2                       # Layer utilization (%)
system.membus.respLayer1.occupancy           21066750                       # Layer occupancy (ticks)
system.membus.respLayer1.utilization              0.1                       # Layer utilization (%)
system.tol2bus.snoop_filter.tot_requests        12242                       # Total number of requests made to the snoop filter.
system.tol2bus.snoop_filter.hit_single_requests         6120                       # Number of requests hitting in the snoop filter with a single holder of the requested data.
system.tol2bus.snoop_filter.hit_multi_requests           10                       # Number of requests hitting in the snoop filter with multiple (>1) holders of the requested data.
system.tol2bus.snoop_filter.tot_snoops             79                       # Total number of snoops made to the snoop filter.
system.tol2bus.snoop_filter.hit_single_snoops           79                       # Number of snoops hitting in the snoop filter with a single holder of the requested data.
system.tol2bus.snoop_filter.hit_multi_snoops            0                       # Number of snoops hitting in the snoop filter with multiple (>1) holders of the requested data.
system.tol2bus.pwrStateResidencyTicks::UNDEFINED  15267344125                       # Cumulative time (in ticks) in various power states
system.tol2bus.trans_dist::ReadResp              2845                       # Transaction distribution
system.tol2bus.trans_dist::WritebackDirty         8094                       # Transaction distribution
system.tol2bus.trans_dist::WritebackClean          679                       # Transaction distribution
system.tol2bus.trans_dist::CleanEvict            1181                       # Transaction distribution
system.tol2bus.trans_dist::ReadExReq             3276                       # Transaction distribution
system.tol2bus.trans_dist::ReadExResp            3276                       # Transaction distribution
system.tol2bus.trans_dist::ReadCleanReq           679                       # Transaction distribution
system.tol2bus.trans_dist::ReadSharedReq         2166                       # Transaction distribution
system.tol2bus.pkt_count_system.cpu0.icache.mem_side::system.l2.cpu_side         2037                       # Packet count per connected master and slave (bytes)
system.tol2bus.pkt_count_system.cpu0.dcache.mem_side::system.l2.cpu_side        16326                       # Packet count per connected master and slave (bytes)
system.tol2bus.pkt_count::total                 18363                       # Packet count per connected master and slave (bytes)
system.tol2bus.pkt_size_system.cpu0.icache.mem_side::system.l2.cpu_side        86912                       # Cumulative packet size per connected master and slave (bytes)
system.tol2bus.pkt_size_system.cpu0.dcache.mem_side::system.l2.cpu_side       630784                       # Cumulative packet size per connected master and slave (bytes)
system.tol2bus.pkt_size::total                 717696                       # Cumulative packet size per connected master and slave (bytes)
system.tol2bus.snoops                            3833                       # Total snoops (count)
system.tol2bus.snoopTraffic                    235520                       # Total snoop traffic (bytes)
system.tol2bus.snoop_fanout::samples             9954                       # Request fanout histogram
system.tol2bus.snoop_fanout::mean            0.008841                       # Request fanout histogram
system.tol2bus.snoop_fanout::stdev           0.093613                       # Request fanout histogram
system.tol2bus.snoop_fanout::underflows             0      0.00%      0.00% # Request fanout histogram
system.tol2bus.snoop_fanout::0                   9866     99.12%     99.12% # Request fanout histogram
system.tol2bus.snoop_fanout::1                     88      0.88%    100.00% # Request fanout histogram
system.tol2bus.snoop_fanout::2                      0      0.00%    100.00% # Request fanout histogram
system.tol2bus.snoop_fanout::3                      0      0.00%    100.00% # Request fanout histogram
system.tol2bus.snoop_fanout::4                      0      0.00%    100.00% # Request fanout histogram
system.tol2bus.snoop_fanout::5                      0      0.00%    100.00% # Request fanout histogram
system.tol2bus.snoop_fanout::6                      0      0.00%    100.00% # Request fanout histogram
system.tol2bus.snoop_fanout::7                      0      0.00%    100.00% # Request fanout histogram
system.tol2bus.snoop_fanout::8                      0      0.00%    100.00% # Request fanout histogram
system.tol2bus.snoop_fanout::9                      0      0.00%    100.00% # Request fanout histogram
system.tol2bus.snoop_fanout::10                     0      0.00%    100.00% # Request fanout histogram
system.tol2bus.snoop_fanout::11                     0      0.00%    100.00% # Request fanout histogram
system.tol2bus.snoop_fanout::12                     0      0.00%    100.00% # Request fanout histogram
system.tol2bus.snoop_fanout::13                     0      0.00%    100.00% # Request fanout histogram
system.tol2bus.snoop_fanout::14                     0      0.00%    100.00% # Request fanout histogram
system.tol2bus.snoop_fanout::15                     0      0.00%    100.00% # Request fanout histogram
system.tol2bus.snoop_fanout::16                     0      0.00%    100.00% # Request fanout histogram
system.tol2bus.snoop_fanout::overflows              0      0.00%    100.00% # Request fanout histogram
system.tol2bus.snoop_fanout::min_value              0                       # Request fanout histogram
system.tol2bus.snoop_fanout::max_value              1                       # Request fanout histogram
system.tol2bus.snoop_fanout::total               9954                       # Request fanout histogram
system.tol2bus.reqLayer0.occupancy           11214000                       # Layer occupancy (ticks)
system.tol2bus.reqLayer0.utilization              0.1                       # Layer utilization (%)
system.tol2bus.respLayer0.occupancy           1018500                       # Layer occupancy (ticks)
system.tol2bus.respLayer0.utilization             0.0                       # Layer utilization (%)
system.tol2bus.respLayer1.occupancy           8163000                       # Layer occupancy (ticks)
system.tol2bus.respLayer1.utilization             0.1                       # Layer utilization (%)

---------- End Simulation Statistics   ----------
