
---------- Begin Simulation Statistics ----------
sim_seconds                                  0.015267                       # Number of seconds simulated
sim_ticks                                 15267344125                       # Number of ticks simulated
final_tick                               656495797375                       # Number of ticks from beginning of simulation (restored from checkpoints and never reset)
sim_freq                                 1000000000000                       # Frequency of simulated ticks
host_inst_rate                               18015862                       # Simulator instruction rate (inst/s)
host_op_rate                                 34090854                       # Simulator op (including micro ops) rate (op/s)
host_tick_rate                              192685980                       # Simulator tick rate (ticks/s)
host_mem_usage                                2303616                       # Number of bytes of host memory used
host_seconds                                    79.23                       # Real time elapsed on the host
sim_insts                                  1427474377                       # Number of instructions simulated
sim_ops                                    2701165618                       # Number of ops (including micro ops) simulated
system.voltage_domain.voltage                       1                       # Voltage in Volts
system.clk_domain.clock                          1000                       # Clock period in ticks
system.mem_ctrls.pwrStateResidencyTicks::UNDEFINED  15267344125                       # Cumulative time (in ticks) in various power states
system.mem_ctrls.bytes_read::cpu0.inst            448                       # Number of bytes read from this memory
system.mem_ctrls.bytes_read::cpu0.data       10581056                       # Number of bytes read from this memory
system.mem_ctrls.bytes_read::total           10581504                       # Number of bytes read from this memory
system.mem_ctrls.bytes_inst_read::cpu0.inst          448                       # Number of instructions bytes read from this memory
system.mem_ctrls.bytes_inst_read::total           448                       # Number of instructions bytes read from this memory
system.mem_ctrls.bytes_written::writebacks      2278976                       # Number of bytes written to this memory
system.mem_ctrls.bytes_written::total         2278976                       # Number of bytes written to this memory
system.mem_ctrls.num_reads::cpu0.inst               7                       # Number of read requests responded to by this memory
system.mem_ctrls.num_reads::cpu0.data          165329                       # Number of read requests responded to by this memory
system.mem_ctrls.num_reads::total              165336                       # Number of read requests responded to by this memory
system.mem_ctrls.num_writes::writebacks         35609                       # Number of write requests responded to by this memory
system.mem_ctrls.num_writes::total              35609                       # Number of write requests responded to by this memory
system.mem_ctrls.bw_read::cpu0.inst             29344                       # Total read bandwidth from this memory (bytes/s)
system.mem_ctrls.bw_read::cpu0.data         693051517                       # Total read bandwidth from this memory (bytes/s)
system.mem_ctrls.bw_read::total             693080860                       # Total read bandwidth from this memory (bytes/s)
system.mem_ctrls.bw_inst_read::cpu0.inst        29344                       # Instruction read bandwidth from this memory (bytes/s)
system.mem_ctrls.bw_inst_read::total            29344                       # Instruction read bandwidth from this memory (bytes/s)
system.mem_ctrls.bw_write::writebacks       149271280                       # Write bandwidth from this memory (bytes/s)
system.mem_ctrls.bw_write::total            149271280                       # Write bandwidth from this memory (bytes/s)
system.mem_ctrls.bw_total::writebacks       149271280                       # Total bandwidth to/from this memory (bytes/s)
system.mem_ctrls.bw_total::cpu0.inst            29344                       # Total bandwidth to/from this memory (bytes/s)
system.mem_ctrls.bw_total::cpu0.data        693051517                       # Total bandwidth to/from this memory (bytes/s)
system.mem_ctrls.bw_total::total            842352140                       # Total bandwidth to/from this memory (bytes/s)
system.mem_ctrls.readReqs                      165335                       # Number of read requests accepted
system.mem_ctrls.writeReqs                      35609                       # Number of write requests accepted
system.mem_ctrls.readBursts                    165335                       # Number of DRAM read bursts, including those serviced by the write queue
system.mem_ctrls.writeBursts                    35609                       # Number of DRAM write bursts, including those merged in the write queue
system.mem_ctrls.bytesReadDRAM               10581248                       # Total number of bytes read from DRAM
system.mem_ctrls.bytesReadWrQ                     192                       # Total number of bytes read from write queue
system.mem_ctrls.bytesWritten                 2278848                       # Total number of bytes written to DRAM
system.mem_ctrls.bytesReadSys                10581440                       # Total read bytes from the system interface side
system.mem_ctrls.bytesWrittenSys              2278976                       # Total written bytes from the system interface side
system.mem_ctrls.servicedByWrQ                      3                       # Number of DRAM read bursts serviced by the write queue
system.mem_ctrls.mergedWrBursts                     0                       # Number of DRAM write bursts merged with an existing one
system.mem_ctrls.neitherReadNorWriteReqs            0                       # Number of requests that are neither read nor write
system.mem_ctrls.perBankRdBursts::0              9832                       # Per bank write bursts
system.mem_ctrls.perBankRdBursts::1             10099                       # Per bank write bursts
system.mem_ctrls.perBankRdBursts::2             10217                       # Per bank write bursts
system.mem_ctrls.perBankRdBursts::3             10108                       # Per bank write bursts
system.mem_ctrls.perBankRdBursts::4              9932                       # Per bank write bursts
system.mem_ctrls.perBankRdBursts::5              9984                       # Per bank write bursts
system.mem_ctrls.perBankRdBursts::6             10500                       # Per bank write bursts
system.mem_ctrls.perBankRdBursts::7             10676                       # Per bank write bursts
system.mem_ctrls.perBankRdBursts::8             10802                       # Per bank write bursts
system.mem_ctrls.perBankRdBursts::9             10587                       # Per bank write bursts
system.mem_ctrls.perBankRdBursts::10            10490                       # Per bank write bursts
system.mem_ctrls.perBankRdBursts::11            10486                       # Per bank write bursts
system.mem_ctrls.perBankRdBursts::12            10476                       # Per bank write bursts
system.mem_ctrls.perBankRdBursts::13            10468                       # Per bank write bursts
system.mem_ctrls.perBankRdBursts::14            10419                       # Per bank write bursts
system.mem_ctrls.perBankRdBursts::15            10256                       # Per bank write bursts
system.mem_ctrls.perBankWrBursts::0              2094                       # Per bank write bursts
system.mem_ctrls.perBankWrBursts::1              2197                       # Per bank write bursts
system.mem_ctrls.perBankWrBursts::2              2220                       # Per bank write bursts
system.mem_ctrls.perBankWrBursts::3              2265                       # Per bank write bursts
system.mem_ctrls.perBankWrBursts::4              2324                       # Per bank write bursts
system.mem_ctrls.perBankWrBursts::5              2183                       # Per bank write bursts
system.mem_ctrls.perBankWrBursts::6              2256                       # Per bank write bursts
system.mem_ctrls.perBankWrBursts::7              2333                       # Per bank write bursts
system.mem_ctrls.perBankWrBursts::8              2356                       # Per bank write bursts
system.mem_ctrls.perBankWrBursts::9              2148                       # Per bank write bursts
system.mem_ctrls.perBankWrBursts::10             2144                       # Per bank write bursts
system.mem_ctrls.perBankWrBursts::11             2221                       # Per bank write bursts
system.mem_ctrls.perBankWrBursts::12             2263                       # Per bank write bursts
system.mem_ctrls.perBankWrBursts::13             2119                       # Per bank write bursts
system.mem_ctrls.perBankWrBursts::14             2329                       # Per bank write bursts
system.mem_ctrls.perBankWrBursts::15             2155                       # Per bank write bursts
system.mem_ctrls.numRdRetry                         0                       # Number of times read queue was full causing retry
system.mem_ctrls.numWrRetry                         0                       # Number of times write queue was full causing retry
system.mem_ctrls.totGap                   15267252000                       # Total gap between requests
system.mem_ctrls.readPktSize::0                     0                       # Read request sizes (log2)
system.mem_ctrls.readPktSize::1                     0                       # Read request sizes (log2)
system.mem_ctrls.readPktSize::2                     0                       # Read request sizes (log2)
system.mem_ctrls.readPktSize::3                     0                       # Read request sizes (log2)
system.mem_ctrls.readPktSize::4                     0                       # Read request sizes (log2)
system.mem_ctrls.readPktSize::5                     0                       # Read request sizes (log2)
system.mem_ctrls.readPktSize::6                165335                       # Read request sizes (log2)
system.mem_ctrls.writePktSize::0                    0                       # Write request sizes (log2)
system.mem_ctrls.writePktSize::1                    0                       # Write request sizes (log2)
system.mem_ctrls.writePktSize::2                    0                       # Write request sizes (log2)
system.mem_ctrls.writePktSize::3                    0                       # Write request sizes (log2)
system.mem_ctrls.writePktSize::4                    0                       # Write request sizes (log2)
system.mem_ctrls.writePktSize::5                    0                       # Write request sizes (log2)
system.mem_ctrls.writePktSize::6                35609                       # Write request sizes (log2)
system.mem_ctrls.rdQLenPdf::0                  149154                       # What read queue length does an incoming req see
system.mem_ctrls.rdQLenPdf::1                   16075                       # What read queue length does an incoming req see
system.mem_ctrls.rdQLenPdf::2                     100                       # What read queue length does an incoming req see
system.mem_ctrls.rdQLenPdf::3                       3                       # What read queue length does an incoming req see
system.mem_ctrls.rdQLenPdf::4                       0                       # What read queue length does an incoming req see
system.mem_ctrls.rdQLenPdf::5                       0                       # What read queue length does an incoming req see
system.mem_ctrls.rdQLenPdf::6                       0                       # What read queue length does an incoming req see
system.mem_ctrls.rdQLenPdf::7                       0                       # What read queue length does an incoming req see
system.mem_ctrls.rdQLenPdf::8                       0                       # What read queue length does an incoming req see
system.mem_ctrls.rdQLenPdf::9                       0                       # What read queue length does an incoming req see
system.mem_ctrls.rdQLenPdf::10                      0                       # What read queue length does an incoming req see
system.mem_ctrls.rdQLenPdf::11                      0                       # What read queue length does an incoming req see
system.mem_ctrls.rdQLenPdf::12                      0                       # What read queue length does an incoming req see
system.mem_ctrls.rdQLenPdf::13                      0                       # What read queue length does an incoming req see
system.mem_ctrls.rdQLenPdf::14                      0                       # What read queue length does an incoming req see
system.mem_ctrls.rdQLenPdf::15                      0                       # What read queue length does an incoming req see
system.mem_ctrls.rdQLenPdf::16                      0                       # What read queue length does an incoming req see
system.mem_ctrls.rdQLenPdf::17                      0                       # What read queue length does an incoming req see
system.mem_ctrls.rdQLenPdf::18                      0                       # What read queue length does an incoming req see
system.mem_ctrls.rdQLenPdf::19                      0                       # What read queue length does an incoming req see
system.mem_ctrls.rdQLenPdf::20                      0                       # What read queue length does an incoming req see
system.mem_ctrls.rdQLenPdf::21                      0                       # What read queue length does an incoming req see
system.mem_ctrls.rdQLenPdf::22                      0                       # What read queue length does an incoming req see
system.mem_ctrls.rdQLenPdf::23                      0                       # What read queue length does an incoming req see
system.mem_ctrls.rdQLenPdf::24                      0                       # What read queue length does an incoming req see
system.mem_ctrls.rdQLenPdf::25                      0                       # What read queue length does an incoming req see
system.mem_ctrls.rdQLenPdf::26                      0                       # What read queue length does an incoming req see
system.mem_ctrls.rdQLenPdf::27                      0                       # What read queue length does an incoming req see
system.mem_ctrls.rdQLenPdf::28                      0                       # What read queue length does an incoming req see
system.mem_ctrls.rdQLenPdf::29                      0                       # What read queue length does an incoming req see
system.mem_ctrls.rdQLenPdf::30                      0                       # What read queue length does an incoming req see
system.mem_ctrls.rdQLenPdf::31                      0                       # What read queue length does an incoming req see
system.mem_ctrls.wrQLenPdf::0                       0                       # What write queue length does an incoming req see
system.mem_ctrls.wrQLenPdf::1                       0                       # What write queue length does an incoming req see
system.mem_ctrls.wrQLenPdf::2                       0                       # What write queue length does an incoming req see
system.mem_ctrls.wrQLenPdf::3                       0                       # What write queue length does an incoming req see
system.mem_ctrls.wrQLenPdf::4                       0                       # What write queue length does an incoming req see
system.mem_ctrls.wrQLenPdf::5                       0                       # What write queue length does an incoming req see
system.mem_ctrls.wrQLenPdf::6                       0                       # What write queue length does an incoming req see
system.mem_ctrls.wrQLenPdf::7                       0                       # What write queue length does an incoming req see
system.mem_ctrls.wrQLenPdf::8                       0                       # What write queue length does an incoming req see
system.mem_ctrls.wrQLenPdf::9                       0                       # What write queue length does an incoming req see
system.mem_ctrls.wrQLenPdf::10                      0                       # What write queue length does an incoming req see
system.mem_ctrls.wrQLenPdf::11                      0                       # What write queue length does an incoming req see
system.mem_ctrls.wrQLenPdf::12                      0                       # What write queue length does an incoming req see
system.mem_ctrls.wrQLenPdf::13                      0                       # What write queue length does an incoming req see
system.mem_ctrls.wrQLenPdf::14                      0                       # What write queue length does an incoming req see
system.mem_ctrls.wrQLenPdf::15                     91                       # What write queue length does an incoming req see
system.mem_ctrls.wrQLenPdf::16                    101                       # What write queue length does an incoming req see
system.mem_ctrls.wrQLenPdf::17                   2194                       # What write queue length does an incoming req see
system.mem_ctrls.wrQLenPdf::18                   2216                       # What write queue length does an incoming req see
system.mem_ctrls.wrQLenPdf::19                   2213                       # What write queue length does an incoming req see
system.mem_ctrls.wrQLenPdf::20                   2213                       # What write queue length does an incoming req see
system.mem_ctrls.wrQLenPdf::21                   2213                       # What write queue length does an incoming req see
system.mem_ctrls.wrQLenPdf::22                   2214                       # What write queue length does an incoming req see
system.mem_ctrls.wrQLenPdf::23                   2214                       # What write queue length does an incoming req see
system.mem_ctrls.wrQLenPdf::24                   2214                       # What write queue length does an incoming req see
system.mem_ctrls.wrQLenPdf::25                   2214                       # What write queue length does an incoming req see
system.mem_ctrls.wrQLenPdf::26                   2214                       # What write queue length does an incoming req see
system.mem_ctrls.wrQLenPdf::27                   2214                       # What write queue length does an incoming req see
system.mem_ctrls.wrQLenPdf::28                   2216                       # What write queue length does an incoming req see
system.mem_ctrls.wrQLenPdf::29                   2218                       # What write queue length does an incoming req see
system.mem_ctrls.wrQLenPdf::30                   2219                       # What write queue length does an incoming req see
system.mem_ctrls.wrQLenPdf::31                   2214                       # What write queue length does an incoming req see
system.mem_ctrls.wrQLenPdf::32                   2215                       # What write queue length does an incoming req see
system.mem_ctrls.wrQLenPdf::33                      2                       # What write queue length does an incoming req see
system.mem_ctrls.wrQLenPdf::34                      0                       # What write queue length does an incoming req see
system.mem_ctrls.wrQLenPdf::35                      0                       # What write queue length does an incoming req see
system.mem_ctrls.wrQLenPdf::36                      0                       # What write queue length does an incoming req see
system.mem_ctrls.wrQLenPdf::37                      0                       # What write queue length does an incoming req see
system.mem_ctrls.wrQLenPdf::38                      0                       # What write queue length does an incoming req see
system.mem_ctrls.wrQLenPdf::39                      0                       # What write queue length does an incoming req see
system.mem_ctrls.wrQLenPdf::40                      0                       # What write queue length does an incoming req see
system.mem_ctrls.wrQLenPdf::41                      0                       # What write queue length does an incoming req see
system.mem_ctrls.wrQLenPdf::42                      0                       # What write queue length does an incoming req see
system.mem_ctrls.wrQLenPdf::43                      0                       # What write queue length does an incoming req see
system.mem_ctrls.wrQLenPdf::44                      0                       # What write queue length does an incoming req see
system.mem_ctrls.wrQLenPdf::45                      0                       # What write queue length does an incoming req see
system.mem_ctrls.wrQLenPdf::46                      0                       # What write queue length does an incoming req see
system.mem_ctrls.wrQLenPdf::47                      0                       # What write queue length does an incoming req see
system.mem_ctrls.wrQLenPdf::48                      0                       # What write queue length does an incoming req see
system.mem_ctrls.wrQLenPdf::49                      0                       # What write queue length does an incoming req see
system.mem_ctrls.wrQLenPdf::50                      0                       # What write queue length does an incoming req see
system.mem_ctrls.wrQLenPdf::51                      0                       # What write queue length does an incoming req see
system.mem_ctrls.wrQLenPdf::52                      0                       # What write queue length does an incoming req see
system.mem_ctrls.wrQLenPdf::53                      0                       # What write queue length does an incoming req see
system.mem_ctrls.wrQLenPdf::54                      0                       # What write queue length does an incoming req see
system.mem_ctrls.wrQLenPdf::55                      0                       # What write queue length does an incoming req see
system.mem_ctrls.wrQLenPdf::56                      0                       # What write queue length does an incoming req see
system.mem_ctrls.wrQLenPdf::57                      0                       # What write queue length does an incoming req see
system.mem_ctrls.wrQLenPdf::58                      0                       # What write queue length does an incoming req see
system.mem_ctrls.wrQLenPdf::59                      0                       # What write queue length does an incoming req see
system.mem_ctrls.wrQLenPdf::60                      0                       # What write queue length does an incoming req see
system.mem_ctrls.wrQLenPdf::61                      0                       # What write queue length does an incoming req see
system.mem_ctrls.wrQLenPdf::62                      0                       # What write queue length does an incoming req see
system.mem_ctrls.wrQLenPdf::63                      0                       # What write queue length does an incoming req see
system.mem_ctrls.bytesPerActivate::samples        28754                       # Bytes accessed per row activation
system.mem_ctrls.bytesPerActivate::mean    447.238784                       # Bytes accessed per row activation
system.mem_ctrls.bytesPerActivate::gmean   274.716177                       # Bytes accessed per row activation
system.mem_ctrls.bytesPerActivate::stdev   379.328439                       # Bytes accessed per row activation
system.mem_ctrls.bytesPerActivate::0-127         7189     25.00%     25.00% # Bytes accessed per row activation
system.mem_ctrls.bytesPerActivate::128-255         5302     18.44%     43.44% # Bytes accessed per row activation
system.mem_ctrls.bytesPerActivate::256-383         3059     10.64%     54.08% # Bytes accessed per row activation
system.mem_ctrls.bytesPerActivate::384-511         2204      7.67%     61.74% # Bytes accessed per row activation
system.mem_ctrls.bytesPerActivate::512-639         1499      5.21%     66.96% # Bytes accessed per row activation
system.mem_ctrls.bytesPerActivate::640-767         1165      4.05%     71.01% # Bytes accessed per row activation
system.mem_ctrls.bytesPerActivate::768-895         1074      3.74%     74.74% # Bytes accessed per row activation
system.mem_ctrls.bytesPerActivate::896-1023          918      3.19%     77.94% # Bytes accessed per row activation
system.mem_ctrls.bytesPerActivate::1024-1151         6344     22.06%    100.00% # Bytes accessed per row activation
system.mem_ctrls.bytesPerActivate::total        28754                       # Bytes accessed per row activation
system.mem_ctrls.rdPerTurnAround::samples         2213                       # Reads before turning the bus around for writes
system.mem_ctrls.rdPerTurnAround::mean      95.674650                       # Reads before turning the bus around for writes
system.mem_ctrls.rdPerTurnAround::gmean     46.318293                       # Reads before turning the bus around for writes
system.mem_ctrls.rdPerTurnAround::stdev   1312.446341                       # Reads before turning the bus around for writes
system.mem_ctrls.rdPerTurnAround::0-2047         2211     99.91%     99.91% # Reads before turning the bus around for writes
system.mem_ctrls.rdPerTurnAround::2048-4095            1      0.05%     99.95% # Reads before turning the bus around for writes
system.mem_ctrls.rdPerTurnAround::61440-63487            1      0.05%    100.00% # Reads before turning the bus around for writes
system.mem_ctrls.rdPerTurnAround::total          2213                       # Reads before turning the bus around for writes
system.mem_ctrls.wrPerTurnAround::samples         2213                       # Writes before turning the bus around for reads
system.mem_ctrls.wrPerTurnAround::mean      16.089923                       # Writes before turning the bus around for reads
system.mem_ctrls.wrPerTurnAround::gmean     16.084864                       # Writes before turning the bus around for reads
system.mem_ctrls.wrPerTurnAround::stdev      0.419412                       # Writes before turning the bus around for reads
system.mem_ctrls.wrPerTurnAround::16             2111     95.39%     95.39% # Writes before turning the bus around for reads
system.mem_ctrls.wrPerTurnAround::17               11      0.50%     95.89% # Writes before turning the bus around for reads
system.mem_ctrls.wrPerTurnAround::18               86      3.89%     99.77% # Writes before turning the bus around for reads
system.mem_ctrls.wrPerTurnAround::19                4      0.18%     99.95% # Writes before turning the bus around for reads
system.mem_ctrls.wrPerTurnAround::20                1      0.05%    100.00% # Writes before turning the bus around for reads
system.mem_ctrls.wrPerTurnAround::total          2213                       # Writes before turning the bus around for reads
system.mem_ctrls.totQLat                   2257869750                       # Total ticks spent queuing
system.mem_ctrls.totMemAccLat              5357844750                       # Total ticks spent from burst creation until serviced by the DRAM
system.mem_ctrls.totBusLat                  826660000                       # Total ticks spent in databus transfers
system.mem_ctrls.avgQLat                     13656.58                       # Average queueing delay per DRAM burst
system.mem_ctrls.avgBusLat                    5000.00                       # Average bus latency per DRAM burst
system.mem_ctrls.avgMemAccLat                32406.58                       # Average memory access latency per DRAM burst
system.mem_ctrls.avgRdBW                       693.06                       # Average DRAM read bandwidth in MiByte/s
system.mem_ctrls.avgWrBW                       149.26                       # Average achieved write bandwidth in MiByte/s
system.mem_ctrls.avgRdBWSys                    693.08                       # Average system read bandwidth in MiByte/s
system.mem_ctrls.avgWrBWSys                    149.27                       # Average system write bandwidth in MiByte/s
system.mem_ctrls.peakBW                      12800.00                       # Theoretical peak bandwidth in MiByte/s
system.mem_ctrls.busUtil                         6.58                       # Data bus utilization in percentage
system.mem_ctrls.busUtilRead                     5.41                       # Data bus utilization in percentage for reads
system.mem_ctrls.busUtilWrite                    1.17                       # Data bus utilization in percentage for writes
system.mem_ctrls.avgRdQLen                       1.10                       # Average read queue length when enqueuing
system.mem_ctrls.avgWrQLen                      25.51                       # Average write queue length when enqueuing
system.mem_ctrls.readRowHits                   148151                       # Number of row buffer hits during reads
system.mem_ctrls.writeRowHits                   24035                       # Number of row buffer hits during writes
system.mem_ctrls.readRowHitRate                 89.61                       # Row buffer hit rate for reads
system.mem_ctrls.writeRowHitRate                67.50                       # Row buffer hit rate for writes
system.mem_ctrls.avgGap                      75977.65                       # Average gap between requests
system.mem_ctrls.pageHitRate                    85.69                       # Row buffer hit rate, read and write combined
system.mem_ctrls_0.actEnergy                102573240                       # Energy for activate commands per rank (pJ)
system.mem_ctrls_0.preEnergy                 54515175                       # Energy for precharge commands per rank (pJ)
system.mem_ctrls_0.readEnergy               580824720                       # Energy for read commands per rank (pJ)
system.mem_ctrls_0.writeEnergy               93291840                       # Energy for write commands per rank (pJ)
system.mem_ctrls_0.refreshEnergy         1145688960.000000                       # Energy for refresh commands per rank (pJ)
system.mem_ctrls_0.actBackEnergy           1645539840                       # Energy for active background per rank (pJ)
system.mem_ctrls_0.preBackEnergy             53468640                       # Energy for precharge background per rank (pJ)
system.mem_ctrls_0.actPowerDownEnergy      3459819630                       # Energy for active power-down per rank (pJ)
system.mem_ctrls_0.prePowerDownEnergy       758759520                       # Energy for precharge power-down per rank (pJ)
system.mem_ctrls_0.selfRefreshEnergy        560608200                       # Energy for self refresh per rank (pJ)
system.mem_ctrls_0.totalEnergy             8455835985                       # Total energy per rank (pJ)
system.mem_ctrls_0.averagePower            553.851142                       # Core power per rank (mW)
system.mem_ctrls_0.totalIdleTime          11517757000                       # Total Idle time Per DRAM Rank
system.mem_ctrls_0.memoryStateTime::IDLE     69961500                       # Time in different power states
system.mem_ctrls_0.memoryStateTime::REF     485672000                       # Time in different power states
system.mem_ctrls_0.memoryStateTime::SREF   1954548500                       # Time in different power states
system.mem_ctrls_0.memoryStateTime::PRE_PDN   1975938500                       # Time in different power states
system.mem_ctrls_0.memoryStateTime::ACT    3193807000                       # Time in different power states
system.mem_ctrls_0.memoryStateTime::ACT_PDN   7587416625                       # Time in different power states
system.mem_ctrls_1.actEnergy                102723180                       # Energy for activate commands per rank (pJ)
system.mem_ctrls_1.preEnergy                 54606255                       # Energy for precharge commands per rank (pJ)
system.mem_ctrls_1.readEnergy               599645760                       # Energy for read commands per rank (pJ)
system.mem_ctrls_1.writeEnergy               92576700                       # Energy for write commands per rank (pJ)
system.mem_ctrls_1.refreshEnergy         1137698640.000000                       # Energy for refresh commands per rank (pJ)
system.mem_ctrls_1.actBackEnergy           1660324500                       # Energy for active background per rank (pJ)
system.mem_ctrls_1.preBackEnergy             52436640                       # Energy for precharge background per rank (pJ)
system.mem_ctrls_1.actPowerDownEnergy      3342021150                       # Energy for active power-down per rank (pJ)
system.mem_ctrls_1.prePowerDownEnergy       783105120                       # Energy for precharge power-down per rank (pJ)
system.mem_ctrls_1.selfRefreshEnergy        605777400                       # Energy for self refresh per rank (pJ)
system.mem_ctrls_1.totalEnergy             8431380675                       # Total energy per rank (pJ)
system.mem_ctrls_1.averagePower            552.249337                       # Core power per rank (mW)
system.mem_ctrls_1.totalIdleTime          11462181750                       # Total Idle time Per DRAM Rank
system.mem_ctrls_1.memoryStateTime::IDLE     68027000                       # Time in different power states
system.mem_ctrls_1.memoryStateTime::REF     482364000                       # Time in different power states
system.mem_ctrls_1.memoryStateTime::SREF   2120356625                       # Time in different power states
system.mem_ctrls_1.memoryStateTime::PRE_PDN   2039342500                       # Time in different power states
system.mem_ctrls_1.memoryStateTime::ACT    3228874250                       # Time in different power states
system.mem_ctrls_1.memoryStateTime::ACT_PDN   7328379750                       # Time in different power states
system.pwrStateResidencyTicks::UNDEFINED  15267344125                       # Cumulative time (in ticks) in various power states
system.cpu0.branchPred.lookups                2260320                       # Number of BP lookups
system.cpu0.branchPred.condPredicted          2260320                       # Number of conditional branches predicted
system.cpu0.branchPred.condIncorrect            36228                       # Number of conditional branches incorrect
system.cpu0.branchPred.BTBLookups             1841410                       # Number of BTB lookups
system.cpu0.branchPred.BTBHits                      0                       # Number of BTB hits
system.cpu0.branchPred.BTBCorrect                   0                       # Number of correct BTB predictions (this stat may not work properly.
system.cpu0.branchPred.BTBHitPct             0.000000                       # BTB Hit Percentage
system.cpu0.branchPred.usedRAS                 256986                       # Number of times the RAS was used to get a target.
system.cpu0.branchPred.RASInCorrect             28417                       # Number of incorrect RAS predictions.
system.cpu0.branchPred.indirectLookups        1841410                       # Number of indirect predictor lookups.
system.cpu0.branchPred.indirectHits            931981                       # Number of indirect target hits.
system.cpu0.branchPred.indirectMisses          909429                       # Number of indirect misses.
system.cpu0.branchPredindirectMispredicted          195                       # Number of mispredicted indirect branches.
system.cpu_voltage_domain.voltage                   1                       # Voltage in Volts
system.cpu_clk_domain.clock                       500                       # Clock period in ticks
system.cpu0.dtb.walker.pwrStateResidencyTicks::UNDEFINED  15267344125                       # Cumulative time (in ticks) in various power states
system.cpu0.dtb.rdAccesses                    2428472                       # TLB accesses on read requests
system.cpu0.dtb.wrAccesses                    1695166                       # TLB accesses on write requests
system.cpu0.dtb.rdMisses                        21526                       # TLB misses on read requests
system.cpu0.dtb.wrMisses                          259                       # TLB misses on write requests
system.cpu0.apic_clk_domain.clock                8000                       # Clock period in ticks
system.cpu0.interrupts.pwrStateResidencyTicks::UNDEFINED  15267344125                       # Cumulative time (in ticks) in various power states
system.cpu0.itb.walker.pwrStateResidencyTicks::UNDEFINED  15267344125                       # Cumulative time (in ticks) in various power states
system.cpu0.itb.rdAccesses                          0                       # TLB accesses on read requests
system.cpu0.itb.wrAccesses                     887127                       # TLB accesses on write requests
system.cpu0.itb.rdMisses                            0                       # TLB misses on read requests
system.cpu0.itb.wrMisses                            0                       # TLB misses on write requests
system.cpu0.workload.numSyscalls                    0                       # Number of system calls
system.cpu0.pwrStateResidencyTicks::ON    15267344125                       # Cumulative time (in ticks) in various power states
system.cpu0.numCycles                        30534688                       # number of cpu cycles simulated
system.cpu0.numWorkItemsStarted                     0                       # number of work items this cpu started
system.cpu0.numWorkItemsCompleted                   0                       # number of work items this cpu completed
system.cpu0.fetch.icacheStallCycles            915122                       # Number of cycles fetch is stalled on an Icache miss
system.cpu0.fetch.Insts                      10727021                       # Number of instructions fetch has processed
system.cpu0.fetch.Branches                    2260320                       # Number of branches that fetch encountered
system.cpu0.fetch.predictedBranches           1188967                       # Number of branches that fetch has predicted taken
system.cpu0.fetch.Cycles                     29582760                       # Number of cycles fetch has run and was not squashing or blocked
system.cpu0.fetch.SquashCycles                  72506                       # Number of cycles fetch has spent squashing
system.cpu0.fetch.CacheLines                   887127                       # Number of cache lines fetched
system.cpu0.fetch.IcacheSquashes                 1355                       # Number of outstanding Icache misses that were squashed
system.cpu0.fetch.rateDist::samples          30534135                       # Number of instructions fetched each cycle (Total)
system.cpu0.fetch.rateDist::mean             0.712973                       # Number of instructions fetched each cycle (Total)
system.cpu0.fetch.rateDist::stdev            2.140233                       # Number of instructions fetched each cycle (Total)
system.cpu0.fetch.rateDist::underflows              0      0.00%      0.00% # Number of instructions fetched each cycle (Total)
system.cpu0.fetch.rateDist::0                26995393     88.41%     88.41% # Number of instructions fetched each cycle (Total)
system.cpu0.fetch.rateDist::1                  349514      1.14%     89.56% # Number of instructions fetched each cycle (Total)
system.cpu0.fetch.rateDist::2                  121791      0.40%     89.95% # Number of instructions fetched each cycle (Total)
system.cpu0.fetch.rateDist::3                  189443      0.62%     90.57% # Number of instructions fetched each cycle (Total)
system.cpu0.fetch.rateDist::4                  233088      0.76%     91.34% # Number of instructions fetched each cycle (Total)
system.cpu0.fetch.rateDist::5                  262727      0.86%     92.20% # Number of instructions fetched each cycle (Total)
system.cpu0.fetch.rateDist::6                  254908      0.83%     93.03% # Number of instructions fetched each cycle (Total)
system.cpu0.fetch.rateDist::7                  185021      0.61%     93.64% # Number of instructions fetched each cycle (Total)
system.cpu0.fetch.rateDist::8                 1942250      6.36%    100.00% # Number of instructions fetched each cycle (Total)
system.cpu0.fetch.rateDist::overflows               0      0.00%    100.00% # Number of instructions fetched each cycle (Total)
system.cpu0.fetch.rateDist::min_value               0                       # Number of instructions fetched each cycle (Total)
system.cpu0.fetch.rateDist::max_value               8                       # Number of instructions fetched each cycle (Total)
system.cpu0.fetch.rateDist::total            30534135                       # Number of instructions fetched each cycle (Total)
system.cpu0.fetch.branchRate                 0.074025                       # Number of branch fetches per cycle
system.cpu0.fetch.rate                       0.351306                       # Number of inst fetches per cycle
system.cpu0.decode.IdleCycles                  924594                       # Number of cycles decode is idle
system.cpu0.decode.BlockedCycles             26495251                       # Number of cycles decode is blocked
system.cpu0.decode.RunCycles                  2406298                       # Number of cycles decode is running
system.cpu0.decode.UnblockCycles               671739                       # Number of cycles decode is unblocking
system.cpu0.decode.SquashCycles                 36253                       # Number of cycles decode is squashing
system.cpu0.decode.DecodedInsts              21141002                       # Number of instructions handled by decode
system.cpu0.rename.SquashCycles                 36253                       # Number of cycles rename is squashing
system.cpu0.rename.IdleCycles                 1139015                       # Number of cycles rename is idle
system.cpu0.rename.BlockCycles               23949659                       # Number of cycles rename is blocking
system.cpu0.rename.serializeStallCycles             0                       # count of cycles rename stalled for serializing inst
system.cpu0.rename.RunCycles                  2779302                       # Number of cycles rename is running
system.cpu0.rename.UnblockCycles              2629906                       # Number of cycles rename is unblocking
system.cpu0.rename.RenamedInsts              20835325                       # Number of instructions processed by rename
system.cpu0.rename.ROBFullEvents                74220                       # Number of times rename has blocked due to ROB full
system.cpu0.rename.IQFullEvents               2146346                       # Number of times rename has blocked due to IQ full
system.cpu0.rename.LQFullEvents                  7670                       # Number of times rename has blocked due to LQ full
system.cpu0.rename.SQFullEvents                717205                       # Number of times rename has blocked due to SQ full
system.cpu0.rename.RenamedOperands           23230422                       # Number of destination operands rename has renamed
system.cpu0.rename.RenameLookups             52734482                       # Number of register rename lookups that rename has made
system.cpu0.rename.int_rename_lookups        32099936                       # Number of integer rename lookups
system.cpu0.rename.CommittedMaps             20384687                       # Number of HB maps that are committed
system.cpu0.rename.UndoneMaps                 2845759                       # Number of HB maps that are undone due to squashing
system.cpu0.rename.serializingInsts                 0                       # count of serializing insts renamed
system.cpu0.rename.tempSerializingInsts             0                       # count of temporary serializing insts renamed
system.cpu0.rename.skidInsts                  3876809                       # count of insts added to the skid buffer
system.cpu0.memDep0.insertedLoads             2844135                       # Number of loads inserted to the mem dependence unit.
system.cpu0.memDep0.insertedStores            1784560                       # Number of stores inserted to the mem dependence unit.
system.cpu0.memDep0.conflictingLoads            36958                       # Number of conflicting loads.
system.cpu0.memDep0.conflictingStores          110134                       # Number of conflicting stores.
system.cpu0.iq.iqInstsAdded                  20599449                       # Number of instructions added to the IQ (excludes non-spec)
system.cpu0.iq.iqNonSpecInstsAdded                 30                       # Number of non-speculative instructions added to the IQ
system.cpu0.iq.iqInstsIssued                 19155369                       # Number of instructions issued
system.cpu0.iq.iqSquashedInstsIssued              943                       # Number of squashed instructions issued
system.cpu0.iq.iqSquashedInstsExamined        2380436                       # Number of squashed instructions iterated over during squash; mainly for profiling
system.cpu0.iq.iqSquashedOperandsExamined      4342263                       # Number of squashed operands that are examined and possibly removed from graph
system.cpu0.iq.iqSquashedNonSpecRemoved            30                       # Number of squashed non-spec instructions that were removed
system.cpu0.iq.issued_per_cycle::samples     30534135                       # Number of insts issued each cycle
system.cpu0.iq.issued_per_cycle::mean        0.627343                       # Number of insts issued each cycle
system.cpu0.iq.issued_per_cycle::stdev       1.572651                       # Number of insts issued each cycle
system.cpu0.iq.issued_per_cycle::underflows            0      0.00%      0.00% # Number of insts issued each cycle
system.cpu0.iq.issued_per_cycle::0           24752764     81.07%     81.07% # Number of insts issued each cycle
system.cpu0.iq.issued_per_cycle::1            1503814      4.93%     85.99% # Number of insts issued each cycle
system.cpu0.iq.issued_per_cycle::2             926292      3.03%     89.02% # Number of insts issued each cycle
system.cpu0.iq.issued_per_cycle::3             918914      3.01%     92.03% # Number of insts issued each cycle
system.cpu0.iq.issued_per_cycle::4             841940      2.76%     94.79% # Number of insts issued each cycle
system.cpu0.iq.issued_per_cycle::5             616068      2.02%     96.81% # Number of insts issued each cycle
system.cpu0.iq.issued_per_cycle::6             417153      1.37%     98.18% # Number of insts issued each cycle
system.cpu0.iq.issued_per_cycle::7             366309      1.20%     99.37% # Number of insts issued each cycle
system.cpu0.iq.issued_per_cycle::8             190881      0.63%    100.00% # Number of insts issued each cycle
system.cpu0.iq.issued_per_cycle::overflows            0      0.00%    100.00% # Number of insts issued each cycle
system.cpu0.iq.issued_per_cycle::min_value            0                       # Number of insts issued each cycle
system.cpu0.iq.issued_per_cycle::max_value            8                       # Number of insts issued each cycle
system.cpu0.iq.issued_per_cycle::total       30534135                       # Number of insts issued each cycle
system.cpu0.iq.fu_full::No_OpClass                  0      0.00%      0.00% # attempts to use FU when none available
system.cpu0.iq.fu_full::IntAlu                 253629     97.04%     97.04% # attempts to use FU when none available
system.cpu0.iq.fu_full::IntMult                     0      0.00%     97.04% # attempts to use FU when none available
system.cpu0.iq.fu_full::IntDiv                      0      0.00%     97.04% # attempts to use FU when none available
system.cpu0.iq.fu_full::FloatAdd                    0      0.00%     97.04% # attempts to use FU when none available
system.cpu0.iq.fu_full::FloatCmp                    0      0.00%     97.04% # attempts to use FU when none available
system.cpu0.iq.fu_full::FloatCvt                    0      0.00%     97.04% # attempts to use FU when none available
system.cpu0.iq.fu_full::FloatMult                   0      0.00%     97.04% # attempts to use FU when none available
system.cpu0.iq.fu_full::FloatMultAcc                0      0.00%     97.04% # attempts to use FU when none available
system.cpu0.iq.fu_full::FloatDiv                    0      0.00%     97.04% # attempts to use FU when none available
system.cpu0.iq.fu_full::FloatMisc                   0      0.00%     97.04% # attempts to use FU when none available
system.cpu0.iq.fu_full::FloatSqrt                   0      0.00%     97.04% # attempts to use FU when none available
system.cpu0.iq.fu_full::SimdAdd                     0      0.00%     97.04% # attempts to use FU when none available
system.cpu0.iq.fu_full::SimdAddAcc                  0      0.00%     97.04% # attempts to use FU when none available
system.cpu0.iq.fu_full::SimdAlu                     0      0.00%     97.04% # attempts to use FU when none available
system.cpu0.iq.fu_full::SimdCmp                     0      0.00%     97.04% # attempts to use FU when none available
system.cpu0.iq.fu_full::SimdCvt                     0      0.00%     97.04% # attempts to use FU when none available
system.cpu0.iq.fu_full::SimdMisc                    0      0.00%     97.04% # attempts to use FU when none available
system.cpu0.iq.fu_full::SimdMult                    0      0.00%     97.04% # attempts to use FU when none available
system.cpu0.iq.fu_full::SimdMultAcc                 0      0.00%     97.04% # attempts to use FU when none available
system.cpu0.iq.fu_full::SimdShift                   0      0.00%     97.04% # attempts to use FU when none available
system.cpu0.iq.fu_full::SimdShiftAcc                0      0.00%     97.04% # attempts to use FU when none available
system.cpu0.iq.fu_full::SimdSqrt                    0      0.00%     97.04% # attempts to use FU when none available
system.cpu0.iq.fu_full::SimdFloatAdd                0      0.00%     97.04% # attempts to use FU when none available
system.cpu0.iq.fu_full::SimdFloatAlu                0      0.00%     97.04% # attempts to use FU when none available
system.cpu0.iq.fu_full::SimdFloatCmp                0      0.00%     97.04% # attempts to use FU when none available
system.cpu0.iq.fu_full::SimdFloatCvt                0      0.00%     97.04% # attempts to use FU when none available
system.cpu0.iq.fu_full::SimdFloatDiv                0      0.00%     97.04% # attempts to use FU when none available
system.cpu0.iq.fu_full::SimdFloatMisc               0      0.00%     97.04% # attempts to use FU when none available
system.cpu0.iq.fu_full::SimdFloatMult               0      0.00%     97.04% # attempts to use FU when none available
system.cpu0.iq.fu_full::SimdFloatMultAcc            0      0.00%     97.04% # attempts to use FU when none available
system.cpu0.iq.fu_full::SimdFloatSqrt               0      0.00%     97.04% # attempts to use FU when none available
system.cpu0.iq.fu_full::MemRead                  7724      2.96%     99.99% # attempts to use FU when none available
system.cpu0.iq.fu_full::MemWrite                   18      0.01%    100.00% # attempts to use FU when none available
system.cpu0.iq.fu_full::FloatMemRead                0      0.00%    100.00% # attempts to use FU when none available
system.cpu0.iq.fu_full::FloatMemWrite               0      0.00%    100.00% # attempts to use FU when none available
system.cpu0.iq.fu_full::IprAccess                   0      0.00%    100.00% # attempts to use FU when none available
system.cpu0.iq.fu_full::InstPrefetch                0      0.00%    100.00% # attempts to use FU when none available
system.cpu0.iq.FU_type_0::No_OpClass             4685      0.02%      0.02% # Type of FU issued
system.cpu0.iq.FU_type_0::IntAlu             14997594     78.29%     78.32% # Type of FU issued
system.cpu0.iq.FU_type_0::IntMult                   0      0.00%     78.32% # Type of FU issued
system.cpu0.iq.FU_type_0::IntDiv                    0      0.00%     78.32% # Type of FU issued
system.cpu0.iq.FU_type_0::FloatAdd                  0      0.00%     78.32% # Type of FU issued
system.cpu0.iq.FU_type_0::FloatCmp                  0      0.00%     78.32% # Type of FU issued
system.cpu0.iq.FU_type_0::FloatCvt                  0      0.00%     78.32% # Type of FU issued
system.cpu0.iq.FU_type_0::FloatMult                 0      0.00%     78.32% # Type of FU issued
system.cpu0.iq.FU_type_0::FloatMultAcc              0      0.00%     78.32% # Type of FU issued
system.cpu0.iq.FU_type_0::FloatDiv                  0      0.00%     78.32% # Type of FU issued
system.cpu0.iq.FU_type_0::FloatMisc                 0      0.00%     78.32% # Type of FU issued
system.cpu0.iq.FU_type_0::FloatSqrt                 0      0.00%     78.32% # Type of FU issued
system.cpu0.iq.FU_type_0::SimdAdd                   0      0.00%     78.32% # Type of FU issued
system.cpu0.iq.FU_type_0::SimdAddAcc                0      0.00%     78.32% # Type of FU issued
system.cpu0.iq.FU_type_0::SimdAlu                   0      0.00%     78.32% # Type of FU issued
system.cpu0.iq.FU_type_0::SimdCmp                   0      0.00%     78.32% # Type of FU issued
system.cpu0.iq.FU_type_0::SimdCvt                   0      0.00%     78.32% # Type of FU issued
system.cpu0.iq.FU_type_0::SimdMisc                  0      0.00%     78.32% # Type of FU issued
system.cpu0.iq.FU_type_0::SimdMult                  0      0.00%     78.32% # Type of FU issued
system.cpu0.iq.FU_type_0::SimdMultAcc               0      0.00%     78.32% # Type of FU issued
system.cpu0.iq.FU_type_0::SimdShift                 0      0.00%     78.32% # Type of FU issued
system.cpu0.iq.FU_type_0::SimdShiftAcc              0      0.00%     78.32% # Type of FU issued
system.cpu0.iq.FU_type_0::SimdSqrt                  0      0.00%     78.32% # Type of FU issued
system.cpu0.iq.FU_type_0::SimdFloatAdd              0      0.00%     78.32% # Type of FU issued
system.cpu0.iq.FU_type_0::SimdFloatAlu              0      0.00%     78.32% # Type of FU issued
system.cpu0.iq.FU_type_0::SimdFloatCmp              0      0.00%     78.32% # Type of FU issued
system.cpu0.iq.FU_type_0::SimdFloatCvt              0      0.00%     78.32% # Type of FU issued
system.cpu0.iq.FU_type_0::SimdFloatDiv              0      0.00%     78.32% # Type of FU issued
system.cpu0.iq.FU_type_0::SimdFloatMisc             0      0.00%     78.32% # Type of FU issued
system.cpu0.iq.FU_type_0::SimdFloatMult             0      0.00%     78.32% # Type of FU issued
system.cpu0.iq.FU_type_0::SimdFloatMultAcc            0      0.00%     78.32% # Type of FU issued
system.cpu0.iq.FU_type_0::SimdFloatSqrt             0      0.00%     78.32% # Type of FU issued
system.cpu0.iq.FU_type_0::MemRead             2456075     12.82%     91.14% # Type of FU issued
system.cpu0.iq.FU_type_0::MemWrite            1697015      8.86%    100.00% # Type of FU issued
system.cpu0.iq.FU_type_0::FloatMemRead              0      0.00%    100.00% # Type of FU issued
system.cpu0.iq.FU_type_0::FloatMemWrite             0      0.00%    100.00% # Type of FU issued
system.cpu0.iq.FU_type_0::IprAccess                 0      0.00%    100.00% # Type of FU issued
system.cpu0.iq.FU_type_0::InstPrefetch              0      0.00%    100.00% # Type of FU issued
system.cpu0.iq.FU_type_0::total              19155369                       # Type of FU issued
system.cpu0.iq.rate                          0.627331                       # Inst issue rate
system.cpu0.iq.fu_busy_cnt                     261371                       # FU busy when requested
system.cpu0.iq.fu_busy_rate                  0.013645                       # FU busy rate (busy events/executed inst)
system.cpu0.iq.int_inst_queue_reads          69107186                       # Number of integer instruction queue reads
system.cpu0.iq.int_inst_queue_writes         22979940                       # Number of integer instruction queue writes
system.cpu0.iq.int_inst_queue_wakeup_accesses     19039202                       # Number of integer instruction queue wakeup accesses
system.cpu0.iq.fp_inst_queue_reads                  0                       # Number of floating instruction queue reads
system.cpu0.iq.fp_inst_queue_writes                 0                       # Number of floating instruction queue writes
system.cpu0.iq.fp_inst_queue_wakeup_accesses            0                       # Number of floating instruction queue wakeup accesses
system.cpu0.iq.vec_inst_queue_reads                 0                       # Number of vector instruction queue reads
system.cpu0.iq.vec_inst_queue_writes                0                       # Number of vector instruction queue writes
system.cpu0.iq.vec_inst_queue_wakeup_accesses            0                       # Number of vector instruction queue wakeup accesses
system.cpu0.iq.int_alu_accesses              19412055                       # Number of integer alu accesses
system.cpu0.iq.fp_alu_accesses                      0                       # Number of floating point alu accesses
system.cpu0.iq.vec_alu_accesses                     0                       # Number of vector alu accesses
system.cpu0.iew.lsq.thread0.forwLoads          316874                       # Number of loads that had data forwarded from stores
system.cpu0.iew.lsq.thread0.invAddrLoads            0                       # Number of loads ignored due to an invalid address
system.cpu0.iew.lsq.thread0.squashedLoads       537738                       # Number of loads squashed
system.cpu0.iew.lsq.thread0.ignoredResponses         1441                       # Number of memory responses ignored because the instruction is squashed
system.cpu0.iew.lsq.thread0.memOrderViolation           25                       # Number of memory ordering violations
system.cpu0.iew.lsq.thread0.squashedStores       144571                       # Number of stores squashed
system.cpu0.iew.lsq.thread0.invAddrSwpfs            0                       # Number of software prefetches ignored due to an invalid address
system.cpu0.iew.lsq.thread0.blockedLoads            0                       # Number of blocked loads due to partial load-store forwarding
system.cpu0.iew.lsq.thread0.rescheduledLoads            0                       # Number of loads that were rescheduled
system.cpu0.iew.lsq.thread0.cacheBlocked           24                       # Number of times an access to memory failed due to the cache being blocked
system.cpu0.iew.iewIdleCycles                       0                       # Number of cycles IEW is idle
system.cpu0.iew.iewSquashCycles                 36253                       # Number of cycles IEW is squashing
system.cpu0.iew.iewBlockCycles               21474681                       # Number of cycles IEW is blocking
system.cpu0.iew.iewUnblockCycles               207730                       # Number of cycles IEW is unblocking
system.cpu0.iew.iewDispatchedInsts           20599479                       # Number of instructions dispatched to IQ
system.cpu0.iew.iewDispSquashedInsts              111                       # Number of squashed instructions skipped by dispatch
system.cpu0.iew.iewDispLoadInsts              2844135                       # Number of dispatched load instructions
system.cpu0.iew.iewDispStoreInsts             1784560                       # Number of dispatched store instructions
system.cpu0.iew.iewDispNonSpecInsts                10                       # Number of dispatched non-speculative instructions
system.cpu0.iew.iewIQFullEvents                 62739                       # Number of times the IQ has become full, causing a stall
system.cpu0.iew.iewLSQFullEvents                 4071                       # Number of times the LSQ has become full, causing a stall
system.cpu0.iew.memOrderViolationEvents            25                       # Number of memory order violations
system.cpu0.iew.predictedTakenIncorrect         32960                       # Number of branches that were predicted taken incorrectly
system.cpu0.iew.predictedNotTakenIncorrect         6385                       # Number of branches that were predicted not taken incorrectly
system.cpu0.iew.branchMispredicts               39345                       # Number of branch mispredicts detected at execute
system.cpu0.iew.iewExecutedInsts             19115713                       # Number of executed instructions
system.cpu0.iew.iewExecLoadInsts              2428472                       # Number of load instructions executed
system.cpu0.iew.iewExecSquashedInsts            39655                       # Number of squashed instructions skipped in execute
system.cpu0.iew.exec_swp                            0                       # number of swp insts executed
system.cpu0.iew.exec_nop                            0                       # number of nop insts executed
system.cpu0.iew.exec_refs                     4123638                       # number of memory reference insts executed
system.cpu0.iew.exec_branches                 2022026                       # Number of branches executed
system.cpu0.iew.exec_stores                   1695166                       # Number of stores executed
system.cpu0.iew.exec_rate                    0.626033                       # Inst execution rate
system.cpu0.iew.wb_sent                      19082144                       # cumulative count of insts sent to commit
system.cpu0.iew.wb_count                     19039202                       # cumulative count of insts written-back
system.cpu0.iew.wb_producers                 13896399                       # num instructions producing a value
system.cpu0.iew.wb_consumers                 23633106                       # num instructions consuming a value
system.cpu0.iew.wb_rate                      0.623527                       # insts written-back per cycle
system.cpu0.iew.wb_fanout                    0.588006                       # average fanout of values written-back
system.cpu0.commit.commitSquashedInsts        2380440                       # The number of squashed insts skipped by commit
system.cpu0.commit.branchMispredicts            36228                       # The number of times a branch was mispredicted
system.cpu0.commit.committed_per_cycle::samples     30222196                       # Number of insts commited each cycle
system.cpu0.commit.committed_per_cycle::mean     0.602837                       # Number of insts commited each cycle
system.cpu0.commit.committed_per_cycle::stdev     1.863946                       # Number of insts commited each cycle
system.cpu0.commit.committed_per_cycle::underflows            0      0.00%      0.00% # Number of insts commited each cycle
system.cpu0.commit.committed_per_cycle::0     26506356     87.70%     87.70% # Number of insts commited each cycle
system.cpu0.commit.committed_per_cycle::1       555130      1.84%     89.54% # Number of insts commited each cycle
system.cpu0.commit.committed_per_cycle::2       297447      0.98%     90.53% # Number of insts commited each cycle
system.cpu0.commit.committed_per_cycle::3       591927      1.96%     92.48% # Number of insts commited each cycle
system.cpu0.commit.committed_per_cycle::4       375638      1.24%     93.73% # Number of insts commited each cycle
system.cpu0.commit.committed_per_cycle::5       316968      1.05%     94.78% # Number of insts commited each cycle
system.cpu0.commit.committed_per_cycle::6       149054      0.49%     95.27% # Number of insts commited each cycle
system.cpu0.commit.committed_per_cycle::7       125861      0.42%     95.69% # Number of insts commited each cycle
system.cpu0.commit.committed_per_cycle::8      1303815      4.31%    100.00% # Number of insts commited each cycle
system.cpu0.commit.committed_per_cycle::overflows            0      0.00%    100.00% # Number of insts commited each cycle
system.cpu0.commit.committed_per_cycle::min_value            0                       # Number of insts commited each cycle
system.cpu0.commit.committed_per_cycle::max_value            8                       # Number of insts commited each cycle
system.cpu0.commit.committed_per_cycle::total     30222196                       # Number of insts commited each cycle
system.cpu0.commit.committedInsts             9179316                       # Number of instructions committed
system.cpu0.commit.committedOps              18219068                       # Number of ops (including micro ops) committed
system.cpu0.commit.swp_count                        0                       # Number of s/w prefetches committed
system.cpu0.commit.refs                       3946412                       # Number of memory references committed
system.cpu0.commit.loads                      2306407                       # Number of loads committed
system.cpu0.commit.membars                          0                       # Number of memory barriers committed
system.cpu0.commit.branches                   1987508                       # Number of branches committed
system.cpu0.commit.vec_insts                        0                       # Number of committed Vector instructions.
system.cpu0.commit.fp_insts                         0                       # Number of committed floating point instructions.
system.cpu0.commit.int_insts                 18214740                       # Number of committed integer instructions.
system.cpu0.commit.function_calls              131792                       # Number of function calls committed.
system.cpu0.commit.op_class_0::No_OpClass         4328      0.02%      0.02% # Class of committed instruction
system.cpu0.commit.op_class_0::IntAlu        14268328     78.32%     78.34% # Class of committed instruction
system.cpu0.commit.op_class_0::IntMult              0      0.00%     78.34% # Class of committed instruction
system.cpu0.commit.op_class_0::IntDiv               0      0.00%     78.34% # Class of committed instruction
system.cpu0.commit.op_class_0::FloatAdd             0      0.00%     78.34% # Class of committed instruction
system.cpu0.commit.op_class_0::FloatCmp             0      0.00%     78.34% # Class of committed instruction
system.cpu0.commit.op_class_0::FloatCvt             0      0.00%     78.34% # Class of committed instruction
system.cpu0.commit.op_class_0::FloatMult            0      0.00%     78.34% # Class of committed instruction
system.cpu0.commit.op_class_0::FloatMultAcc            0      0.00%     78.34% # Class of committed instruction
system.cpu0.commit.op_class_0::FloatDiv             0      0.00%     78.34% # Class of committed instruction
system.cpu0.commit.op_class_0::FloatMisc            0      0.00%     78.34% # Class of committed instruction
system.cpu0.commit.op_class_0::FloatSqrt            0      0.00%     78.34% # Class of committed instruction
system.cpu0.commit.op_class_0::SimdAdd              0      0.00%     78.34% # Class of committed instruction
system.cpu0.commit.op_class_0::SimdAddAcc            0      0.00%     78.34% # Class of committed instruction
system.cpu0.commit.op_class_0::SimdAlu              0      0.00%     78.34% # Class of committed instruction
system.cpu0.commit.op_class_0::SimdCmp              0      0.00%     78.34% # Class of committed instruction
system.cpu0.commit.op_class_0::SimdCvt              0      0.00%     78.34% # Class of committed instruction
system.cpu0.commit.op_class_0::SimdMisc             0      0.00%     78.34% # Class of committed instruction
system.cpu0.commit.op_class_0::SimdMult             0      0.00%     78.34% # Class of committed instruction
system.cpu0.commit.op_class_0::SimdMultAcc            0      0.00%     78.34% # Class of committed instruction
system.cpu0.commit.op_class_0::SimdShift            0      0.00%     78.34% # Class of committed instruction
system.cpu0.commit.op_class_0::SimdShiftAcc            0      0.00%     78.34% # Class of committed instruction
system.cpu0.commit.op_class_0::SimdSqrt             0      0.00%     78.34% # Class of committed instruction
system.cpu0.commit.op_class_0::SimdFloatAdd            0      0.00%     78.34% # Class of committed instruction
system.cpu0.commit.op_class_0::SimdFloatAlu            0      0.00%     78.34% # Class of committed instruction
system.cpu0.commit.op_class_0::SimdFloatCmp            0      0.00%     78.34% # Class of committed instruction
system.cpu0.commit.op_class_0::SimdFloatCvt            0      0.00%     78.34% # Class of committed instruction
system.cpu0.commit.op_class_0::SimdFloatDiv            0      0.00%     78.34% # Class of committed instruction
system.cpu0.commit.op_class_0::SimdFloatMisc            0      0.00%     78.34% # Class of committed instruction
system.cpu0.commit.op_class_0::SimdFloatMult            0      0.00%     78.34% # Class of committed instruction
system.cpu0.commit.op_class_0::SimdFloatMultAcc            0      0.00%     78.34% # Class of committed instruction
system.cpu0.commit.op_class_0::SimdFloatSqrt            0      0.00%     78.34% # Class of committed instruction
system.cpu0.commit.op_class_0::MemRead        2306407     12.66%     91.00% # Class of committed instruction
system.cpu0.commit.op_class_0::MemWrite       1640005      9.00%    100.00% # Class of committed instruction
system.cpu0.commit.op_class_0::FloatMemRead            0      0.00%    100.00% # Class of committed instruction
system.cpu0.commit.op_class_0::FloatMemWrite            0      0.00%    100.00% # Class of committed instruction
system.cpu0.commit.op_class_0::IprAccess            0      0.00%    100.00% # Class of committed instruction
system.cpu0.commit.op_class_0::InstPrefetch            0      0.00%    100.00% # Class of committed instruction
system.cpu0.commit.op_class_0::total         18219068                       # Class of committed instruction
system.cpu0.commit.bw_lim_events              1303815                       # number cycles where commit BW limit reached
system.cpu0.rob.rob_reads                    49517889                       # The number of ROB reads
system.cpu0.rob.rob_writes                   41510946                       # The number of ROB writes
system.cpu0.timesIdled                              5                       # Number of times that the entire CPU went into an idle state and unscheduled itself
system.cpu0.idleCycles                            553                       # Total number of cycles that the CPU has spent unscheduled due to idling
system.cpu0.committedInsts                    9179316                       # Number of Instructions Simulated
system.cpu0.committedOps                     18219068                       # Number of Ops (including micro ops) Simulated
system.cpu0.cpi                              3.326467                       # CPI: Cycles Per Instruction
system.cpu0.cpi_total                        3.326467                       # CPI: Total CPI of All Threads
system.cpu0.ipc                              0.300619                       # IPC: Instructions Per Cycle
system.cpu0.ipc_total                        0.300619                       # IPC: Total IPC of All Threads
system.cpu0.int_regfile_reads                28733390                       # number of integer regfile reads
system.cpu0.int_regfile_writes               15344799                       # number of integer regfile writes
system.cpu0.cc_regfile_reads                 11090131                       # number of cc regfile reads
system.cpu0.cc_regfile_writes                 5981000                       # number of cc regfile writes
system.cpu0.misc_regfile_reads                8309402                       # number of misc regfile reads
system.cpu0.dcache.tags.pwrStateResidencyTicks::UNDEFINED  15267344125                       # Cumulative time (in ticks) in various power states
system.cpu0.dcache.tags.replacements           228552                       # number of replacements
system.cpu0.dcache.tags.tagsinuse                1024                       # Cycle average of tags in use
system.cpu0.dcache.tags.total_refs            1397260                       # Total number of references to valid blocks.
system.cpu0.dcache.tags.sampled_refs           228552                       # Sample count of references to valid blocks.
system.cpu0.dcache.tags.avg_refs             6.113532                       # Average number of references to valid blocks.
system.cpu0.dcache.tags.warmup_cycle                0                       # Cycle when the warmup percentage was hit.
system.cpu0.dcache.tags.occ_blocks::cpu0.data         1024                       # Average occupied blocks per requestor
system.cpu0.dcache.tags.occ_percent::cpu0.data            1                       # Average percentage of cache occupancy
system.cpu0.dcache.tags.occ_percent::total            1                       # Average percentage of cache occupancy
system.cpu0.dcache.tags.occ_task_id_blocks::1024         1024                       # Occupied blocks per task id
system.cpu0.dcache.tags.age_task_id_blocks_1024::0          149                       # Occupied blocks per task id
system.cpu0.dcache.tags.age_task_id_blocks_1024::1          834                       # Occupied blocks per task id
system.cpu0.dcache.tags.age_task_id_blocks_1024::2           26                       # Occupied blocks per task id
system.cpu0.dcache.tags.age_task_id_blocks_1024::3           15                       # Occupied blocks per task id
system.cpu0.dcache.tags.occ_task_id_percent::1024            1                       # Percentage of cache occupancy per task id
system.cpu0.dcache.tags.tag_accesses         15173060                       # Number of tag accesses
system.cpu0.dcache.tags.data_accesses        15173060                       # Number of data accesses
system.cpu0.dcache.pwrStateResidencyTicks::UNDEFINED  15267344125                       # Cumulative time (in ticks) in various power states
system.cpu0.dcache.ReadReq_hits::cpu0.data      1640769                       # number of ReadReq hits
system.cpu0.dcache.ReadReq_hits::total        1640769                       # number of ReadReq hits
system.cpu0.dcache.WriteReq_hits::cpu0.data      1623380                       # number of WriteReq hits
system.cpu0.dcache.WriteReq_hits::total       1623380                       # number of WriteReq hits
system.cpu0.dcache.demand_hits::cpu0.data      3264149                       # number of demand (read+write) hits
system.cpu0.dcache.demand_hits::total         3264149                       # number of demand (read+write) hits
system.cpu0.dcache.overall_hits::cpu0.data      3264149                       # number of overall hits
system.cpu0.dcache.overall_hits::total        3264149                       # number of overall hits
system.cpu0.dcache.ReadReq_misses::cpu0.data       455355                       # number of ReadReq misses
system.cpu0.dcache.ReadReq_misses::total       455355                       # number of ReadReq misses
system.cpu0.dcache.WriteReq_misses::cpu0.data        16623                       # number of WriteReq misses
system.cpu0.dcache.WriteReq_misses::total        16623                       # number of WriteReq misses
system.cpu0.dcache.demand_misses::cpu0.data       471978                       # number of demand (read+write) misses
system.cpu0.dcache.demand_misses::total        471978                       # number of demand (read+write) misses
system.cpu0.dcache.overall_misses::cpu0.data       471978                       # number of overall misses
system.cpu0.dcache.overall_misses::total       471978                       # number of overall misses
system.cpu0.dcache.ReadReq_miss_latency::cpu0.data  29769758500                       # number of ReadReq miss cycles
system.cpu0.dcache.ReadReq_miss_latency::total  29769758500                       # number of ReadReq miss cycles
system.cpu0.dcache.WriteReq_miss_latency::cpu0.data   1475494000                       # number of WriteReq miss cycles
system.cpu0.dcache.WriteReq_miss_latency::total   1475494000                       # number of WriteReq miss cycles
system.cpu0.dcache.demand_miss_latency::cpu0.data  31245252500                       # number of demand (read+write) miss cycles
system.cpu0.dcache.demand_miss_latency::total  31245252500                       # number of demand (read+write) miss cycles
system.cpu0.dcache.overall_miss_latency::cpu0.data  31245252500                       # number of overall miss cycles
system.cpu0.dcache.overall_miss_latency::total  31245252500                       # number of overall miss cycles
system.cpu0.dcache.ReadReq_accesses::cpu0.data      2096124                       # number of ReadReq accesses(hits+misses)
system.cpu0.dcache.ReadReq_accesses::total      2096124                       # number of ReadReq accesses(hits+misses)
system.cpu0.dcache.WriteReq_accesses::cpu0.data      1640003                       # number of WriteReq accesses(hits+misses)
system.cpu0.dcache.WriteReq_accesses::total      1640003                       # number of WriteReq accesses(hits+misses)
system.cpu0.dcache.demand_accesses::cpu0.data      3736127                       # number of demand (read+write) accesses
system.cpu0.dcache.demand_accesses::total      3736127                       # number of demand (read+write) accesses
system.cpu0.dcache.overall_accesses::cpu0.data      3736127                       # number of overall (read+write) accesses
system.cpu0.dcache.overall_accesses::total      3736127                       # number of overall (read+write) accesses
system.cpu0.dcache.ReadReq_miss_rate::cpu0.data     0.217237                       # miss rate for ReadReq accesses
system.cpu0.dcache.ReadReq_miss_rate::total     0.217237                       # miss rate for ReadReq accesses
system.cpu0.dcache.WriteReq_miss_rate::cpu0.data     0.010136                       # miss rate for WriteReq accesses
system.cpu0.dcache.WriteReq_miss_rate::total     0.010136                       # miss rate for WriteReq accesses
system.cpu0.dcache.demand_miss_rate::cpu0.data     0.126328                       # miss rate for demand accesses
system.cpu0.dcache.demand_miss_rate::total     0.126328                       # miss rate for demand accesses
system.cpu0.dcache.overall_miss_rate::cpu0.data     0.126328                       # miss rate for overall accesses
system.cpu0.dcache.overall_miss_rate::total     0.126328                       # miss rate for overall accesses
system.cpu0.dcache.ReadReq_avg_miss_latency::cpu0.data 65377.032206                       # average ReadReq miss latency
system.cpu0.dcache.ReadReq_avg_miss_latency::total 65377.032206                       # average ReadReq miss latency
system.cpu0.dcache.WriteReq_avg_miss_latency::cpu0.data 88762.196956                       # average WriteReq miss latency
system.cpu0.dcache.WriteReq_avg_miss_latency::total 88762.196956                       # average WriteReq miss latency
system.cpu0.dcache.demand_avg_miss_latency::cpu0.data 66200.654480                       # average overall miss latency
system.cpu0.dcache.demand_avg_miss_latency::total 66200.654480                       # average overall miss latency
system.cpu0.dcache.overall_avg_miss_latency::cpu0.data 66200.654480                       # average overall miss latency
system.cpu0.dcache.overall_avg_miss_latency::total 66200.654480                       # average overall miss latency
system.cpu0.dcache.blocked_cycles::no_mshrs          935                       # number of cycles access was blocked
[...]
system.l2.ReadExReq_miss_rate::cpu0.data     0.964951                       # miss rate for ReadExReq accesses
system.l2.ReadExReq_miss_rate::total         0.964951                       # miss rate for ReadExReq accesses
system.l2.ReadCleanReq_miss_rate::cpu0.inst            1                       # miss rate for ReadCleanReq accesses
system.l2.ReadCleanReq_miss_rate::total             1                       # miss rate for ReadCleanReq accesses
system.l2.ReadSharedReq_miss_rate::cpu0.data     0.704479                       # miss rate for ReadSharedReq accesses
system.l2.ReadSharedReq_miss_rate::total     0.704479                       # miss rate for ReadSharedReq accesses
system.l2.demand_miss_rate::cpu0.inst               1                       # miss rate for demand accesses
system.l2.demand_miss_rate::cpu0.data        0.723371                       # miss rate for demand accesses
system.l2.demand_miss_rate::total            0.723380                       # miss rate for demand accesses
system.l2.overall_miss_rate::cpu0.inst              1                       # miss rate for overall accesses
system.l2.overall_miss_rate::cpu0.data       0.723371                       # miss rate for overall accesses
system.l2.overall_miss_rate::total           0.723380                       # miss rate for overall accesses
system.l2.ReadExReq_avg_miss_latency::cpu0.data 88981.432858                       # average ReadExReq miss latency
system.l2.ReadExReq_avg_miss_latency::total 88981.432858                       # average ReadExReq miss latency
system.l2.ReadCleanReq_avg_miss_latency::cpu0.inst 125428.571429                       # average ReadCleanReq miss latency
system.l2.ReadCleanReq_avg_miss_latency::total 125428.571429                       # average ReadCleanReq miss latency
system.l2.ReadSharedReq_avg_miss_latency::cpu0.data 82741.331396                       # average ReadSharedReq miss latency
system.l2.ReadSharedReq_avg_miss_latency::total 82741.331396                       # average ReadSharedReq miss latency
system.l2.demand_avg_miss_latency::cpu0.inst 125428.571429                       # average overall miss latency
system.l2.demand_avg_miss_latency::cpu0.data 83345.080688                       # average overall miss latency
system.l2.demand_avg_miss_latency::total 83346.862431                       # average overall miss latency
system.l2.overall_avg_miss_latency::cpu0.inst 125428.571429                       # average overall miss latency
system.l2.overall_avg_miss_latency::cpu0.data 83345.080688                       # average overall miss latency
system.l2.overall_avg_miss_latency::total 83346.862431                       # average overall miss latency
system.l2.blocked_cycles::no_mshrs                  0                       # number of cycles access was blocked
system.l2.blocked_cycles::no_targets                0                       # number of cycles access was blocked
system.l2.blocked::no_mshrs                         0                       # number of cycles access was blocked
system.l2.blocked::no_targets                       0                       # number of cycles access was blocked
system.l2.avg_blocked_cycles::no_mshrs            nan                       # average number of cycles each access was blocked
system.l2.avg_blocked_cycles::no_targets          nan                       # average number of cycles each access was blocked
system.l2.writebacks::writebacks                35609                       # number of writebacks
system.l2.writebacks::total                     35609                       # number of writebacks
system.l2.ReadExReq_mshr_misses::cpu0.data        15996                       # number of ReadExReq MSHR misses
system.l2.ReadExReq_mshr_misses::total          15996                       # number of ReadExReq MSHR misses
system.l2.ReadCleanReq_mshr_misses::cpu0.inst            7                       # number of ReadCleanReq MSHR misses
system.l2.ReadCleanReq_mshr_misses::total            7                       # number of ReadCleanReq MSHR misses
system.l2.ReadSharedReq_mshr_misses::cpu0.data       149332                       # number of ReadSharedReq MSHR misses
system.l2.ReadSharedReq_mshr_misses::total       149332                       # number of ReadSharedReq MSHR misses
system.l2.demand_mshr_misses::cpu0.inst             7                       # number of demand (read+write) MSHR misses
system.l2.demand_mshr_misses::cpu0.data        165328                       # number of demand (read+write) MSHR misses
system.l2.demand_mshr_misses::total            165335                       # number of demand (read+write) MSHR misses
system.l2.overall_mshr_misses::cpu0.inst            7                       # number of overall MSHR misses
system.l2.overall_mshr_misses::cpu0.data       165328                       # number of overall MSHR misses
system.l2.overall_mshr_misses::total           165335                       # number of overall MSHR misses
system.l2.ReadExReq_mshr_miss_latency::cpu0.data   1263387000                       # number of ReadExReq MSHR miss cycles
system.l2.ReadExReq_mshr_miss_latency::total   1263387000                       # number of ReadExReq MSHR miss cycles
system.l2.ReadCleanReq_mshr_miss_latency::cpu0.inst       808000                       # number of ReadCleanReq MSHR miss cycles
system.l2.ReadCleanReq_mshr_miss_latency::total       808000                       # number of ReadCleanReq MSHR miss cycles
system.l2.ReadSharedReq_mshr_miss_latency::cpu0.data  10862598500                       # number of ReadSharedReq MSHR miss cycles
system.l2.ReadSharedReq_mshr_miss_latency::total  10862598500                       # number of ReadSharedReq MSHR miss cycles
system.l2.demand_mshr_miss_latency::cpu0.inst       808000                       # number of demand (read+write) MSHR miss cycles
system.l2.demand_mshr_miss_latency::cpu0.data  12125985500                       # number of demand (read+write) MSHR miss cycles
system.l2.demand_mshr_miss_latency::total  12126793500                       # number of demand (read+write) MSHR miss cycles
system.l2.overall_mshr_miss_latency::cpu0.inst       808000                       # number of overall MSHR miss cycles
system.l2.overall_mshr_miss_latency::cpu0.data  12125985500                       # number of overall MSHR miss cycles
system.l2.overall_mshr_miss_latency::total  12126793500                       # number of overall MSHR miss cycles
system.l2.ReadExReq_mshr_miss_rate::cpu0.data     0.964951                       # mshr miss rate for ReadExReq accesses
system.l2.ReadExReq_mshr_miss_rate::total     0.964951                       # mshr miss rate for ReadExReq accesses
system.l2.ReadCleanReq_mshr_miss_rate::cpu0.inst            1                       # mshr miss rate for ReadCleanReq accesses
system.l2.ReadCleanReq_mshr_miss_rate::total            1                       # mshr miss rate for ReadCleanReq accesses
system.l2.ReadSharedReq_mshr_miss_rate::cpu0.data     0.704479                       # mshr miss rate for ReadSharedReq accesses
system.l2.ReadSharedReq_mshr_miss_rate::total     0.704479                       # mshr miss rate for ReadSharedReq accesses
system.l2.demand_mshr_miss_rate::cpu0.inst            1                       # mshr miss rate for demand accesses
system.l2.demand_mshr_miss_rate::cpu0.data     0.723371                       # mshr miss rate for demand accesses
system.l2.demand_mshr_miss_rate::total       0.723380                       # mshr miss rate for demand accesses
system.l2.overall_mshr_miss_rate::cpu0.inst            1                       # mshr miss rate for overall accesses
system.l2.overall_mshr_miss_rate::cpu0.data     0.723371                       # mshr miss rate for overall accesses
system.l2.overall_mshr_miss_rate::total      0.723380                       # mshr miss rate for overall accesses
system.l2.ReadExReq_avg_mshr_miss_latency::cpu0.data 78981.432858                       # average ReadExReq mshr miss latency
system.l2.ReadExReq_avg_mshr_miss_latency::total 78981.432858                       # average ReadExReq mshr miss latency
system.l2.ReadCleanReq_avg_mshr_miss_latency::cpu0.inst 115428.571429                       # average ReadCleanReq mshr miss latency
system.l2.ReadCleanReq_avg_mshr_miss_latency::total 115428.571429                       # average ReadCleanReq mshr miss latency
system.l2.ReadSharedReq_avg_mshr_miss_latency::cpu0.data 72741.264431                       # average ReadSharedReq mshr miss latency
system.l2.ReadSharedReq_avg_mshr_miss_latency::total 72741.264431                       # average ReadSharedReq mshr miss latency
system.l2.demand_avg_mshr_miss_latency::cpu0.inst 115428.571429                       # average overall mshr miss latency
system.l2.demand_avg_mshr_miss_latency::cpu0.data 73345.020202                       # average overall mshr miss latency
system.l2.demand_avg_mshr_miss_latency::total 73346.801948                       # average overall mshr miss latency
system.l2.overall_avg_mshr_miss_latency::cpu0.inst 115428.571429                       # average overall mshr miss latency
system.l2.overall_avg_mshr_miss_latency::cpu0.data 73345.020202                       # average overall mshr miss latency
system.l2.overall_avg_mshr_miss_latency::total 73346.801948                       # average overall mshr miss latency
system.membus.snoop_filter.tot_requests        330568                       # Total number of requests made to the snoop filter.
system.membus.snoop_filter.hit_single_requests       165234                       # Number of requests hitting in the snoop filter with a single holder of the requested data.
system.membus.snoop_filter.hit_multi_requests            0                       # Number of requests hitting in the snoop filter with multiple (>1) holders of the requested data.
system.membus.snoop_filter.tot_snoops               0                       # Total number of snoops made to the snoop filter.
system.membus.snoop_filter.hit_single_snoops            0                       # Number of snoops hitting in the snoop filter with a single holder of the requested data.
system.membus.snoop_filter.hit_multi_snoops            0                       # Number of snoops hitting in the snoop filter with multiple (>1) holders of the requested data.
system.membus.pwrStateResidencyTicks::UNDEFINED  15267344125                       # Cumulative time (in ticks) in various power states
system.membus.trans_dist::ReadResp             149340                       # Transaction distribution
system.membus.trans_dist::WritebackDirty        35609                       # Transaction distribution
system.membus.trans_dist::CleanEvict           129624                       # Transaction distribution
system.membus.trans_dist::ReadExReq             15996                       # Transaction distribution
system.membus.trans_dist::ReadExResp            15996                       # Transaction distribution
system.membus.trans_dist::ReadSharedReq        149339                       # Transaction distribution
system.membus.pkt_count_system.l2.mem_side::system.mem_ctrls.port       495904                       # Packet count per connected master and slave (bytes)
system.membus.pkt_count_system.l2.mem_side::total       495904                       # Packet count per connected master and slave (bytes)
system.membus.pkt_count::total                 495904                       # Packet count per connected master and slave (bytes)
system.membus.pkt_size_system.l2.mem_side::system.mem_ctrls.port     12860480                       # Cumulative packet size per connected master and slave (bytes)
system.membus.pkt_size_system.l2.mem_side::total     12860480                       # Cumulative packet size per connected master and slave (bytes)
system.membus.pkt_size::total                12860480                       # Cumulative packet size per connected master and slave (bytes)
system.membus.snoops                                0                       # Total snoops (count)
system.membus.snoopTraffic                          0                       # Total snoop traffic (bytes)
system.membus.snoop_fanout::samples            165335                       # Request fanout histogram
system.membus.snoop_fanout::mean                    0                       # Request fanout histogram
system.membus.snoop_fanout::stdev                   0                       # Request fanout histogram
system.membus.snoop_fanout::underflows              0      0.00%      0.00% # Request fanout histogram
system.membus.snoop_fanout::0                  165335    100.00%    100.00% # Request fanout histogram
system.membus.snoop_fanout::1                       0      0.00%    100.00% # Request fanout histogram
system.membus.snoop_fanout::overflows               0      0.00%    100.00% # Request fanout histogram
system.membus.snoop_fanout::min_value               0                       # Request fanout histogram
system.membus.snoop_fanout::max_value               0                       # Request fanout histogram
system.membus.snoop_fanout::total              165335                       # Request fanout histogram
system.membus.reqLayer8.occupancy           497482000                       # Layer occupancy (ticks)
system.membus.reqLayer8.utilization               3.3                       # Layer utilization (%)
system.membus.respLayer1.occupancy          873246500                       # Layer occupancy (ticks)
system.membus.respLayer1.utilization              5.7                       # Layer utilization (%)
system.tol2bus.snoop_filter.tot_requests       457118                       # Total number of requests made to the snoop filter.
system.tol2bus.snoop_filter.hit_single_requests       228559                       # Number of requests hitting in the snoop filter with a single holder of the requested data.
system.tol2bus.snoop_filter.hit_multi_requests            1                       # Number of requests hitting in the snoop filter with multiple (>1) holders of the requested data.
system.tol2bus.snoop_filter.tot_snoops            114                       # Total number of snoops made to the snoop filter.
system.tol2bus.snoop_filter.hit_single_snoops          114                       # Number of snoops hitting in the snoop filter with a single holder of the requested data.
system.tol2bus.snoop_filter.hit_multi_snoops            0                       # Number of snoops hitting in the snoop filter with multiple (>1) holders of the requested data.
system.tol2bus.pwrStateResidencyTicks::UNDEFINED  15267344125                       # Cumulative time (in ticks) in various power states
system.tol2bus.trans_dist::ReadResp            211982                       # Transaction distribution
system.tol2bus.trans_dist::WritebackDirty       121580                       # Transaction distribution
system.tol2bus.trans_dist::WritebackClean            7                       # Transaction distribution
system.tol2bus.trans_dist::CleanEvict          272316                       # Transaction distribution
system.tol2bus.trans_dist::ReadExReq            16577                       # Transaction distribution
system.tol2bus.trans_dist::ReadExResp           16577                       # Transaction distribution
system.tol2bus.trans_dist::ReadCleanReq             7                       # Transaction distribution
system.tol2bus.trans_dist::ReadSharedReq       211975                       # Transaction distribution
system.tol2bus.pkt_count_system.cpu0.icache.mem_side::system.l2.cpu_side           21                       # Packet count per connected master and slave (bytes)
system.tol2bus.pkt_count_system.cpu0.dcache.mem_side::system.l2.cpu_side       685656                       # Packet count per connected master and slave (bytes)
system.tol2bus.pkt_count::total                685677                       # Packet count per connected master and slave (bytes)
system.tol2bus.pkt_size_system.cpu0.icache.mem_side::system.l2.cpu_side          896                       # Cumulative packet size per connected master and slave (bytes)
system.tol2bus.pkt_size_system.cpu0.dcache.mem_side::system.l2.cpu_side     20129472                       # Cumulative packet size per connected master and slave (bytes)
system.tol2bus.pkt_size::total               20130368                       # Cumulative packet size per connected master and slave (bytes)
system.tol2bus.snoops                          165344                       # Total snoops (count)
system.tol2bus.snoopTraffic                   2278976                       # Total snoop traffic (bytes)
system.tol2bus.snoop_fanout::samples           393903                       # Request fanout histogram
system.tol2bus.snoop_fanout::mean            0.000292                       # Request fanout histogram
system.tol2bus.snoop_fanout::stdev           0.017084                       # Request fanout histogram
system.tol2bus.snoop_fanout::underflows             0      0.00%      0.00% # Request fanout histogram
system.tol2bus.snoop_fanout::0                 393788     99.97%     99.97% # Request fanout histogram
system.tol2bus.snoop_fanout::1                    115      0.03%    100.00% # Request fanout histogram
system.tol2bus.snoop_fanout::2                      0      0.00%    100.00% # Request fanout histogram
system.tol2bus.snoop_fanout::3                      0      0.00%    100.00% # Request fanout histogram
system.tol2bus.snoop_fanout::4                      0      0.00%    100.00% # Request fanout histogram
system.tol2bus.snoop_fanout::5                      0      0.00%    100.00% # Request fanout histogram
system.tol2bus.snoop_fanout::6                      0      0.00%    100.00% # Request fanout histogram
system.tol2bus.snoop_fanout::7                      0      0.00%    100.00% # Request fanout histogram
system.tol2bus.snoop_fanout::8                      0      0.00%    100.00% # Request fanout histogram
system.tol2bus.snoop_fanout::9                      0      0.00%    100.00% # Request fanout histogram
system.tol2bus.snoop_fanout::10                     0      0.00%    100.00% # Request fanout histogram
system.tol2bus.snoop_fanout::11                     0      0.00%    100.00% # Request fanout histogram
system.tol2bus.snoop_fanout::12                     0      0.00%    100.00% # Request fanout histogram
system.tol2bus.snoop_fanout::13                     0      0.00%    100.00% # Request fanout histogram
system.tol2bus.snoop_fanout::14                     0      0.00%    100.00% # Request fanout histogram
system.tol2bus.snoop_fanout::15                     0      0.00%    100.00% # Request fanout histogram
system.tol2bus.snoop_fanout::16                     0      0.00%    100.00% # Request fanout histogram
system.tol2bus.snoop_fanout::overflows              0      0.00%    100.00% # Request fanout histogram
system.tol2bus.snoop_fanout::min_value              0                       # Request fanout histogram
system.tol2bus.snoop_fanout::max_value              1                       # Request fanout histogram
system.tol2bus.snoop_fanout::total             393903                       # Request fanout histogram
system.tol2bus.reqLayer0.occupancy          314537000                       # Layer occupancy (ticks)
system.tol2bus.reqLayer0.utilization              2.1                       # Layer utilization (%)
system.tol2bus.respLayer0.occupancy             10500                       # Layer occupancy (ticks)
system.tol2bus.respLayer0.utilization             0.0                       # Layer utilization (%)
system.tol2bus.respLayer1.occupancy         342828000                       # Layer occupancy (ticks)
system.tol2bus.respLayer1.utilization             2.2                       # Layer utilization (%)

---------- End Simulation Statistics   ----------
