
---------- Begin Simulation Statistics ----------
sim_seconds                                  0.015267                       # Number of seconds simulated
sim_ticks                                 15267344125                       # Number of ticks simulated
final_tick                               3542023837000                       # Number of ticks from beginning of simulation (restored from checkpoints and never reset)
sim_freq                                 1000000000000                       # Frequency of simulated ticks
host_inst_rate                               99259458                       # Simulator instruction rate (inst/s)
host_op_rate                                184130829                       # Simulator op (including micro ops) rate (op/s)
host_tick_rate                              267758173                       # Simulator tick rate (ticks/s)
host_mem_usage                                2332536                       # Number of bytes of host memory used
host_seconds                                    57.02                       # Real time elapsed on the host
sim_insts                                  5659687273                       # Number of instructions simulated
sim_ops                                   10498981352                       # Number of ops (including micro ops) simulated
system.voltage_domain.voltage                       1                       # Voltage in Volts
system.clk_domain.clock                          1000                       # Clock period in ticks
system.mem_ctrls.pwrStateResidencyTicks::UNDEFINED  15267344125                       # Cumulative time (in ticks) in various power states
system.mem_ctrls.bytes_read::cpu0.inst             64                       # Number of bytes read from this memory
system.mem_ctrls.bytes_read::cpu0.data       10566976                       # Number of bytes read from this memory
system.mem_ctrls.bytes_read::total           10567040                       # Number of bytes read from this memory
system.mem_ctrls.bytes_inst_read::cpu0.inst           64                       # Number of instructions bytes read from this memory
system.mem_ctrls.bytes_inst_read::total            64                       # Number of instructions bytes read from this memory
system.mem_ctrls.bytes_written::writebacks        41024                       # Number of bytes written to this memory
system.mem_ctrls.bytes_written::total           41024                       # Number of bytes written to this memory
system.mem_ctrls.num_reads::cpu0.inst               1                       # Number of read requests responded to by this memory
system.mem_ctrls.num_reads::cpu0.data          165109                       # Number of read requests responded to by this memory
system.mem_ctrls.num_reads::total              165110                       # Number of read requests responded to by this memory
system.mem_ctrls.num_writes::writebacks           641                       # Number of write requests responded to by this memory
system.mem_ctrls.num_writes::total                641                       # Number of write requests responded to by this memory
system.mem_ctrls.bw_read::cpu0.inst              4192                       # Total read bandwidth from this memory (bytes/s)
system.mem_ctrls.bw_read::cpu0.data         692129287                       # Total read bandwidth from this memory (bytes/s)
system.mem_ctrls.bw_read::total             692133479                       # Total read bandwidth from this memory (bytes/s)
system.mem_ctrls.bw_inst_read::cpu0.inst         4192                       # Instruction read bandwidth from this memory (bytes/s)
system.mem_ctrls.bw_inst_read::total             4192                       # Instruction read bandwidth from this memory (bytes/s)
system.mem_ctrls.bw_write::writebacks         2687042                       # Write bandwidth from this memory (bytes/s)
system.mem_ctrls.bw_write::total              2687042                       # Write bandwidth from this memory (bytes/s)
system.mem_ctrls.bw_total::writebacks         2687042                       # Total bandwidth to/from this memory (bytes/s)
system.mem_ctrls.bw_total::cpu0.inst             4192                       # Total bandwidth to/from this memory (bytes/s)
system.mem_ctrls.bw_total::cpu0.data        692129287                       # Total bandwidth to/from this memory (bytes/s)
system.mem_ctrls.bw_total::total            694820521                       # Total bandwidth to/from this memory (bytes/s)
system.mem_ctrls.readReqs                      165111                       # Number of read requests accepted
system.mem_ctrls.writeReqs                        641                       # Number of write requests accepted
system.mem_ctrls.readBursts                    165111                       # Number of DRAM read bursts, including those serviced by the write queue
system.mem_ctrls.writeBursts                      641                       # Number of DRAM write bursts, including those merged in the write queue
system.mem_ctrls.bytesReadDRAM               10562752                       # Total number of bytes read from DRAM
system.mem_ctrls.bytesReadWrQ                    4352                       # Total number of bytes read from write queue
system.mem_ctrls.bytesWritten                   41088                       # Total number of bytes written to DRAM
system.mem_ctrls.bytesReadSys                10567104                       # Total read bytes from the system interface side
system.mem_ctrls.bytesWrittenSys                41024                       # Total written bytes from the system interface side
system.mem_ctrls.servicedByWrQ                     68                       # Number of DRAM read bursts serviced by the write queue
system.mem_ctrls.mergedWrBursts                     0                       # Number of DRAM write bursts merged with an existing one
system.mem_ctrls.neitherReadNorWriteReqs            0                       # Number of requests that are neither read nor write
system.mem_ctrls.perBankRdBursts::0              9865                       # Per bank write bursts
system.mem_ctrls.perBankRdBursts::1             10097                       # Per bank write bursts
system.mem_ctrls.perBankRdBursts::2              9964                       # Per bank write bursts
system.mem_ctrls.perBankRdBursts::3             10792                       # Per bank write bursts
system.mem_ctrls.perBankRdBursts::4             11134                       # Per bank write bursts
system.mem_ctrls.perBankRdBursts::5             10849                       # Per bank write bursts
system.mem_ctrls.perBankRdBursts::6             10799                       # Per bank write bursts
system.mem_ctrls.perBankRdBursts::7             10371                       # Per bank write bursts
system.mem_ctrls.perBankRdBursts::8             10754                       # Per bank write bursts
system.mem_ctrls.perBankRdBursts::9              9957                       # Per bank write bursts
system.mem_ctrls.perBankRdBursts::10            10087                       # Per bank write bursts
system.mem_ctrls.perBankRdBursts::11             9657                       # Per bank write bursts
system.mem_ctrls.perBankRdBursts::12            10102                       # Per bank write bursts
system.mem_ctrls.perBankRdBursts::13            10378                       # Per bank write bursts
system.mem_ctrls.perBankRdBursts::14            10013                       # Per bank write bursts
system.mem_ctrls.perBankRdBursts::15            10224                       # Per bank write bursts
system.mem_ctrls.perBankWrBursts::0                 0                       # Per bank write bursts
system.mem_ctrls.perBankWrBursts::1                76                       # Per bank write bursts
system.mem_ctrls.perBankWrBursts::2                 2                       # Per bank write bursts
system.mem_ctrls.perBankWrBursts::3                90                       # Per bank write bursts
system.mem_ctrls.perBankWrBursts::4                12                       # Per bank write bursts
system.mem_ctrls.perBankWrBursts::5                32                       # Per bank write bursts
system.mem_ctrls.perBankWrBursts::6               111                       # Per bank write bursts
system.mem_ctrls.perBankWrBursts::7               126                       # Per bank write bursts
system.mem_ctrls.perBankWrBursts::8               117                       # Per bank write bursts
system.mem_ctrls.perBankWrBursts::9                69                       # Per bank write bursts
system.mem_ctrls.perBankWrBursts::10                3                       # Per bank write bursts
system.mem_ctrls.perBankWrBursts::11                0                       # Per bank write bursts
system.mem_ctrls.perBankWrBursts::12                4                       # Per bank write bursts
system.mem_ctrls.perBankWrBursts::13                0                       # Per bank write bursts
system.mem_ctrls.perBankWrBursts::14                0                       # Per bank write bursts
system.mem_ctrls.perBankWrBursts::15                0                       # Per bank write bursts
system.mem_ctrls.numRdRetry                         0                       # Number of times read queue was full causing retry
system.mem_ctrls.numWrRetry                         0                       # Number of times write queue was full causing retry
system.mem_ctrls.totGap                   15267387500                       # Total gap between requests
system.mem_ctrls.readPktSize::0                     0                       # Read request sizes (log2)
system.mem_ctrls.readPktSize::1                     0                       # Read request sizes (log2)
system.mem_ctrls.readPktSize::2                     0                       # Read request sizes (log2)
system.mem_ctrls.readPktSize::3                     0                       # Read request sizes (log2)
system.mem_ctrls.readPktSize::4                     0                       # Read request sizes (log2)
system.mem_ctrls.readPktSize::5                     0                       # Read request sizes (log2)
system.mem_ctrls.readPktSize::6                165111                       # Read request sizes (log2)
system.mem_ctrls.writePktSize::0                    0                       # Write request sizes (log2)
system.mem_ctrls.writePktSize::1                    0                       # Write request sizes (log2)
system.mem_ctrls.writePktSize::2                    0                       # Write request sizes (log2)
system.mem_ctrls.writePktSize::3                    0                       # Write request sizes (log2)
system.mem_ctrls.writePktSize::4                    0                       # Write request sizes (log2)
system.mem_ctrls.writePktSize::5                    0                       # Write request sizes (log2)
system.mem_ctrls.writePktSize::6                  641                       # Write request sizes (log2)
system.mem_ctrls.rdQLenPdf::0                  127854                       # What read queue length does an incoming req see
system.mem_ctrls.rdQLenPdf::1                   34690                       # What read queue length does an incoming req see
system.mem_ctrls.rdQLenPdf::2                    2421                       # What read queue length does an incoming req see
system.mem_ctrls.rdQLenPdf::3                      77                       # What read queue length does an incoming req see
system.mem_ctrls.rdQLenPdf::4                       1                       # What read queue length does an incoming req see
system.mem_ctrls.rdQLenPdf::5                       0                       # What read queue length does an incoming req see
system.mem_ctrls.rdQLenPdf::6                       0                       # What read queue length does an incoming req see
system.mem_ctrls.rdQLenPdf::7                       0                       # What read queue length does an incoming req see
system.mem_ctrls.rdQLenPdf::8                       0                       # What read queue length does an incoming req see
system.mem_ctrls.rdQLenPdf::9                       0                       # What read queue length does an incoming req see
system.mem_ctrls.rdQLenPdf::10                      0                       # What read queue length does an incoming req see
system.mem_ctrls.rdQLenPdf::11                      0                       # What read queue length does an incoming req see
system.mem_ctrls.rdQLenPdf::12                      0                       # What read queue length does an incoming req see
system.mem_ctrls.rdQLenPdf::13                      0                       # What read queue length does an incoming req see
system.mem_ctrls.rdQLenPdf::14                      0                       # What read queue length does an incoming req see
system.mem_ctrls.rdQLenPdf::15                      0                       # What read queue length does an incoming req see
system.mem_ctrls.rdQLenPdf::16                      0                       # What read queue length does an incoming req see
system.mem_ctrls.rdQLenPdf::17                      0                       # What read queue length does an incoming req see
system.mem_ctrls.rdQLenPdf::18                      0                       # What read queue length does an incoming req see
system.mem_ctrls.rdQLenPdf::19                      0                       # What read queue length does an incoming req see
system.mem_ctrls.rdQLenPdf::20                      0                       # What read queue length does an incoming req see
system.mem_ctrls.rdQLenPdf::21                      0                       # What read queue length does an incoming req see
system.mem_ctrls.rdQLenPdf::22                      0                       # What read queue length does an incoming req see
system.mem_ctrls.rdQLenPdf::23                      0                       # What read queue length does an incoming req see
system.mem_ctrls.rdQLenPdf::24                      0                       # What read queue length does an incoming req see
system.mem_ctrls.rdQLenPdf::25                      0                       # What read queue length does an incoming req see
system.mem_ctrls.rdQLenPdf::26                      0                       # What read queue length does an incoming req see
system.mem_ctrls.rdQLenPdf::27                      0                       # What read queue length does an incoming req see
system.mem_ctrls.rdQLenPdf::28                      0                       # What read queue length does an incoming req see
system.mem_ctrls.rdQLenPdf::29                      0                       # What read queue length does an incoming req see
system.mem_ctrls.rdQLenPdf::30                      0                       # What read queue length does an incoming req see
system.mem_ctrls.rdQLenPdf::31                      0                       # What read queue length does an incoming req see
system.mem_ctrls.wrQLenPdf::0                       0                       # What write queue length does an incoming req see
system.mem_ctrls.wrQLenPdf::1                       0                       # What write queue length does an incoming req see
system.mem_ctrls.wrQLenPdf::2                       0                       # What write queue length does an incoming req see
system.mem_ctrls.wrQLenPdf::3                       0                       # What write queue length does an incoming req see
system.mem_ctrls.wrQLenPdf::4                       0                       # What write queue length does an incoming req see
system.mem_ctrls.wrQLenPdf::5                       0                       # What write queue length does an incoming req see
system.mem_ctrls.wrQLenPdf::6                       0                       # What write queue length does an incoming req see
system.mem_ctrls.wrQLenPdf::7                       0                       # What write queue length does an incoming req see
system.mem_ctrls.wrQLenPdf::8                       0                       # What write queue length does an incoming req see
system.mem_ctrls.wrQLenPdf::9                       0                       # What write queue length does an incoming req see
system.mem_ctrls.wrQLenPdf::10                      0                       # What write queue length does an incoming req see
system.mem_ctrls.wrQLenPdf::11                      0                       # What write queue length does an incoming req see
system.mem_ctrls.wrQLenPdf::12                      0                       # What write queue length does an incoming req see
system.mem_ctrls.wrQLenPdf::13                      0                       # What write queue length does an incoming req see
system.mem_ctrls.wrQLenPdf::14                      0                       # What write queue length does an incoming req see
system.mem_ctrls.wrQLenPdf::15                      1                       # What write queue length does an incoming req see
system.mem_ctrls.wrQLenPdf::16                      1                       # What write queue length does an incoming req see
system.mem_ctrls.wrQLenPdf::17                     39                       # What write queue length does an incoming req see
system.mem_ctrls.wrQLenPdf::18                     40                       # What write queue length does an incoming req see
system.mem_ctrls.wrQLenPdf::19                     40                       # What write queue length does an incoming req see
system.mem_ctrls.wrQLenPdf::20                     40                       # What write queue length does an incoming req see
system.mem_ctrls.wrQLenPdf::21                     40                       # What write queue length does an incoming req see
system.mem_ctrls.wrQLenPdf::22                     40                       # What write queue length does an incoming req see
system.mem_ctrls.wrQLenPdf::23                     40                       # What write queue length does an incoming req see
system.mem_ctrls.wrQLenPdf::24                     40                       # What write queue length does an incoming req see
system.mem_ctrls.wrQLenPdf::25                     40                       # What write queue length does an incoming req see
system.mem_ctrls.wrQLenPdf::26                     40                       # What write queue length does an incoming req see
system.mem_ctrls.wrQLenPdf::27                     40                       # What write queue length does an incoming req see
system.mem_ctrls.wrQLenPdf::28                     40                       # What write queue length does an incoming req see
system.mem_ctrls.wrQLenPdf::29                     40                       # What write queue length does an incoming req see
system.mem_ctrls.wrQLenPdf::30                     40                       # What write queue length does an incoming req see
system.mem_ctrls.wrQLenPdf::31                     40                       # What write queue length does an incoming req see
system.mem_ctrls.wrQLenPdf::32                     40                       # What write queue length does an incoming req see
system.mem_ctrls.wrQLenPdf::33                      0                       # What write queue length does an incoming req see
system.mem_ctrls.wrQLenPdf::34                      0                       # What write queue length does an incoming req see
system.mem_ctrls.wrQLenPdf::35                      0                       # What write queue length does an incoming req see
system.mem_ctrls.wrQLenPdf::36                      0                       # What write queue length does an incoming req see
system.mem_ctrls.wrQLenPdf::37                      0                       # What write queue length does an incoming req see
system.mem_ctrls.wrQLenPdf::38                      0                       # What write queue length does an incoming req see
system.mem_ctrls.wrQLenPdf::39                      0                       # What write queue length does an incoming req see
system.mem_ctrls.wrQLenPdf::40                      0                       # What write queue length does an incoming req see
system.mem_ctrls.wrQLenPdf::41                      0                       # What write queue length does an incoming req see
system.mem_ctrls.wrQLenPdf::42                      0                       # What write queue length does an incoming req see
system.mem_ctrls.wrQLenPdf::43                      0                       # What write queue length does an incoming req see
system.mem_ctrls.wrQLenPdf::44                      0                       # What write queue length does an incoming req see
system.mem_ctrls.wrQLenPdf::45                      0                       # What write queue length does an incoming req see
system.mem_ctrls.wrQLenPdf::46                      0                       # What write queue length does an incoming req see
system.mem_ctrls.wrQLenPdf::47                      0                       # What write queue length does an incoming req see
system.mem_ctrls.wrQLenPdf::48                      0                       # What write queue length does an incoming req see
system.mem_ctrls.wrQLenPdf::49                      0                       # What write queue length does an incoming req see
system.mem_ctrls.wrQLenPdf::50                      0                       # What write queue length does an incoming req see
system.mem_ctrls.wrQLenPdf::51                      0                       # What write queue length does an incoming req see
system.mem_ctrls.wrQLenPdf::52                      0                       # What write queue length does an incoming req see
system.mem_ctrls.wrQLenPdf::53                      0                       # What write queue length does an incoming req see
system.mem_ctrls.wrQLenPdf::54                      0                       # What write queue length does an incoming req see
system.mem_ctrls.wrQLenPdf::55                      0                       # What write queue length does an incoming req see
system.mem_ctrls.wrQLenPdf::56                      0                       # What write queue length does an incoming req see
system.mem_ctrls.wrQLenPdf::57                      0                       # What write queue length does an incoming req see
system.mem_ctrls.wrQLenPdf::58                      0                       # What write queue length does an incoming req see
system.mem_ctrls.wrQLenPdf::59                      0                       # What write queue length does an incoming req see
system.mem_ctrls.wrQLenPdf::60                      0                       # What write queue length does an incoming req see
system.mem_ctrls.wrQLenPdf::61                      0                       # What write queue length does an incoming req see
system.mem_ctrls.wrQLenPdf::62                      0                       # What write queue length does an incoming req see
system.mem_ctrls.wrQLenPdf::63                      0                       # What write queue length does an incoming req see
system.mem_ctrls.bytesPerActivate::samples        91878                       # Bytes accessed per row activation
system.mem_ctrls.bytesPerActivate::mean    115.407998                       # Bytes accessed per row activation
system.mem_ctrls.bytesPerActivate::gmean    99.974127                       # Bytes accessed per row activation
system.mem_ctrls.bytesPerActivate::stdev    69.710546                       # Bytes accessed per row activation
system.mem_ctrls.bytesPerActivate::0-127        47712     51.93%     51.93% # Bytes accessed per row activation
system.mem_ctrls.bytesPerActivate::128-255        36936     40.20%     92.13% # Bytes accessed per row activation
system.mem_ctrls.bytesPerActivate::256-383         6384      6.95%     99.08% # Bytes accessed per row activation
system.mem_ctrls.bytesPerActivate::384-511          742      0.81%     99.89% # Bytes accessed per row activation
system.mem_ctrls.bytesPerActivate::512-639           79      0.09%     99.97% # Bytes accessed per row activation
system.mem_ctrls.bytesPerActivate::640-767           11      0.01%     99.98% # Bytes accessed per row activation
system.mem_ctrls.bytesPerActivate::768-895            5      0.01%     99.99% # Bytes accessed per row activation
system.mem_ctrls.bytesPerActivate::896-1023            6      0.01%    100.00% # Bytes accessed per row activation
system.mem_ctrls.bytesPerActivate::1024-1151            3      0.00%    100.00% # Bytes accessed per row activation
system.mem_ctrls.bytesPerActivate::total        91878                       # Bytes accessed per row activation
system.mem_ctrls.rdPerTurnAround::samples           40                       # Reads before turning the bus around for writes
system.mem_ctrls.rdPerTurnAround::mean    4151.275000                       # Reads before turning the bus around for writes
system.mem_ctrls.rdPerTurnAround::gmean   4040.408523                       # Reads before turning the bus around for writes
system.mem_ctrls.rdPerTurnAround::stdev    984.456481                       # Reads before turning the bus around for writes
system.mem_ctrls.rdPerTurnAround::2304-2559            1      2.50%      2.50% # Reads before turning the bus around for writes
system.mem_ctrls.rdPerTurnAround::2560-2815            2      5.00%      7.50% # Reads before turning the bus around for writes
system.mem_ctrls.rdPerTurnAround::2816-3071            1      2.50%     10.00% # Reads before turning the bus around for writes
system.mem_ctrls.rdPerTurnAround::3072-3327            5     12.50%     22.50% # Reads before turning the bus around for writes
system.mem_ctrls.rdPerTurnAround::3328-3583            4     10.00%     32.50% # Reads before turning the bus around for writes
system.mem_ctrls.rdPerTurnAround::3584-3839            7     17.50%     50.00% # Reads before turning the bus around for writes
system.mem_ctrls.rdPerTurnAround::3840-4095            1      2.50%     52.50% # Reads before turning the bus around for writes
system.mem_ctrls.rdPerTurnAround::4096-4351            3      7.50%     60.00% # Reads before turning the bus around for writes
system.mem_ctrls.rdPerTurnAround::4352-4607            4     10.00%     70.00% # Reads before turning the bus around for writes
system.mem_ctrls.rdPerTurnAround::4608-4863            1      2.50%     72.50% # Reads before turning the bus around for writes
system.mem_ctrls.rdPerTurnAround::4864-5119            3      7.50%     80.00% # Reads before turning the bus around for writes
system.mem_ctrls.rdPerTurnAround::5120-5375            4     10.00%     90.00% # Reads before turning the bus around for writes
system.mem_ctrls.rdPerTurnAround::5376-5631            2      5.00%     95.00% # Reads before turning the bus around for writes
system.mem_ctrls.rdPerTurnAround::5888-6143            1      2.50%     97.50% # Reads before turning the bus around for writes
system.mem_ctrls.rdPerTurnAround::6656-6911            1      2.50%    100.00% # Reads before turning the bus around for writes
system.mem_ctrls.rdPerTurnAround::total            40                       # Reads before turning the bus around for writes
system.mem_ctrls.wrPerTurnAround::samples           40                       # Writes before turning the bus around for reads
system.mem_ctrls.wrPerTurnAround::mean      16.050000                       # Writes before turning the bus around for reads
system.mem_ctrls.wrPerTurnAround::gmean     16.047183                       # Writes before turning the bus around for reads
system.mem_ctrls.wrPerTurnAround::stdev      0.316228                       # Writes before turning the bus around for reads
system.mem_ctrls.wrPerTurnAround::16               39     97.50%     97.50% # Writes before turning the bus around for reads
system.mem_ctrls.wrPerTurnAround::18                1      2.50%    100.00% # Writes before turning the bus around for reads
system.mem_ctrls.wrPerTurnAround::total            40                       # Writes before turning the bus around for reads
system.mem_ctrls.totQLat                   4199815000                       # Total ticks spent queuing
system.mem_ctrls.totMemAccLat              7294371250                       # Total ticks spent from burst creation until serviced by the DRAM
system.mem_ctrls.totBusLat                  825215000                       # Total ticks spent in databus transfers
system.mem_ctrls.avgQLat                     25446.79                       # Average queueing delay per DRAM burst
system.mem_ctrls.avgBusLat                    5000.00                       # Average bus latency per DRAM burst
system.mem_ctrls.avgMemAccLat                44196.79                       # Average memory access latency per DRAM burst
system.mem_ctrls.avgRdBW                       691.85                       # Average DRAM read bandwidth in MiByte/s
system.mem_ctrls.avgWrBW                         2.69                       # Average achieved write bandwidth in MiByte/s
system.mem_ctrls.avgRdBWSys                    692.14                       # Average system read bandwidth in MiByte/s
system.mem_ctrls.avgWrBWSys                      2.69                       # Average system write bandwidth in MiByte/s
system.mem_ctrls.peakBW                      12800.00                       # Theoretical peak bandwidth in MiByte/s
system.mem_ctrls.busUtil                         5.43                       # Data bus utilization in percentage
system.mem_ctrls.busUtilRead                     5.41                       # Data bus utilization in percentage for reads
system.mem_ctrls.busUtilWrite                    0.02                       # Data bus utilization in percentage for writes
system.mem_ctrls.avgRdQLen                       1.27                       # Average read queue length when enqueuing
system.mem_ctrls.avgWrQLen                      25.55                       # Average write queue length when enqueuing
system.mem_ctrls.readRowHits                    73282                       # Number of row buffer hits during reads
system.mem_ctrls.writeRowHits                     524                       # Number of row buffer hits during writes
system.mem_ctrls.readRowHitRate                 44.40                       # Row buffer hit rate for reads
system.mem_ctrls.writeRowHitRate                81.75                       # Row buffer hit rate for writes
system.mem_ctrls.avgGap                      92109.82                       # Average gap between requests
system.mem_ctrls.pageHitRate                    44.55                       # Row buffer hit rate, read and write combined
system.mem_ctrls_0.actEnergy                332452680                       # Energy for activate commands per rank (pJ)
system.mem_ctrls_0.preEnergy                176698995                       # Energy for precharge commands per rank (pJ)
system.mem_ctrls_0.readEnergy               598831800                       # Energy for read commands per rank (pJ)
system.mem_ctrls_0.writeEnergy                2343780                       # Energy for write commands per rank (pJ)
system.mem_ctrls_0.refreshEnergy         1206538320.000000                       # Energy for refresh commands per rank (pJ)
system.mem_ctrls_0.actBackEnergy           1487843070                       # Energy for active background per rank (pJ)
system.mem_ctrls_0.preBackEnergy             25016640                       # Energy for precharge background per rank (pJ)
system.mem_ctrls_0.actPowerDownEnergy      5245896960                       # Energy for active power-down per rank (pJ)
system.mem_ctrls_0.prePowerDownEnergy       166025280                       # Energy for precharge power-down per rank (pJ)
system.mem_ctrls_0.selfRefreshEnergy          2344320                       # Energy for self refresh per rank (pJ)
system.mem_ctrls_0.totalEnergy             9244078635                       # Total energy per rank (pJ)
system.mem_ctrls_0.averagePower            605.480466                       # Core power per rank (mW)
system.mem_ctrls_0.totalIdleTime          11938969875                       # Total Idle time Per DRAM Rank
system.mem_ctrls_0.memoryStateTime::IDLE     10445000                       # Time in different power states
system.mem_ctrls_0.memoryStateTime::REF     510404000                       # Time in different power states
system.mem_ctrls_0.memoryStateTime::SREF      2671500                       # Time in different power states
system.mem_ctrls_0.memoryStateTime::PRE_PDN    432278500                       # Time in different power states
system.mem_ctrls_0.memoryStateTime::ACT    2807525250                       # Time in different power states
system.mem_ctrls_0.memoryStateTime::ACT_PDN  11504019875                       # Time in different power states
system.mem_ctrls_1.actEnergy                323563380                       # Energy for activate commands per rank (pJ)
system.mem_ctrls_1.preEnergy                171978015                       # Energy for precharge commands per rank (pJ)
system.mem_ctrls_1.readEnergy               579568080                       # Energy for read commands per rank (pJ)
system.mem_ctrls_1.writeEnergy                1007460                       # Energy for write commands per rank (pJ)
system.mem_ctrls_1.refreshEnergy         1205923680.000000                       # Energy for refresh commands per rank (pJ)
system.mem_ctrls_1.actBackEnergy           1453140330                       # Energy for active background per rank (pJ)
system.mem_ctrls_1.preBackEnergy             25040640                       # Energy for precharge background per rank (pJ)
system.mem_ctrls_1.actPowerDownEnergy      5278872600                       # Energy for active power-down per rank (pJ)
system.mem_ctrls_1.prePowerDownEnergy       167754720                       # Energy for precharge power-down per rank (pJ)
system.mem_ctrls_1.selfRefreshEnergy          1605180                       # Energy for self refresh per rank (pJ)
system.mem_ctrls_1.totalEnergy             9208563675                       # Total energy per rank (pJ)
system.mem_ctrls_1.averagePower            603.154262                       # Core power per rank (mW)
system.mem_ctrls_1.totalIdleTime          12014191125                       # Total Idle time Per DRAM Rank
system.mem_ctrls_1.memoryStateTime::IDLE     10668000                       # Time in different power states
system.mem_ctrls_1.memoryStateTime::REF     510132000                       # Time in different power states
system.mem_ctrls_1.memoryStateTime::SREF      1843000                       # Time in different power states
system.mem_ctrls_1.memoryStateTime::PRE_PDN    436904750                       # Time in different power states
system.mem_ctrls_1.memoryStateTime::ACT    2731143250                       # Time in different power states
system.mem_ctrls_1.memoryStateTime::ACT_PDN  11576653125                       # Time in different power states
system.pwrStateResidencyTicks::UNDEFINED  15267344125                       # Cumulative time (in ticks) in various power states
system.cpu0.branchPred.lookups                2400052                       # Number of BP lookups
system.cpu0.branchPred.condPredicted          2400052                       # Number of conditional branches predicted
system.cpu0.branchPred.condIncorrect           110460                       # Number of conditional branches incorrect
system.cpu0.branchPred.BTBLookups             1862250                       # Number of BTB lookups
system.cpu0.branchPred.BTBHits                      0                       # Number of BTB hits
system.cpu0.branchPred.BTBCorrect                   0                       # Number of correct BTB predictions (this stat may not work properly.
system.cpu0.branchPred.BTBHitPct             0.000000                       # BTB Hit Percentage
system.cpu0.branchPred.usedRAS                  86220                       # Number of times the RAS was used to get a target.
system.cpu0.branchPred.RASInCorrect             12467                       # Number of incorrect RAS predictions.
system.cpu0.branchPred.indirectLookups        1862250                       # Number of indirect predictor lookups.
system.cpu0.branchPred.indirectHits            998309                       # Number of indirect target hits.
system.cpu0.branchPred.indirectMisses          863941                       # Number of indirect misses.
system.cpu0.branchPredindirectMispredicted        36896                       # Number of mispredicted indirect branches.
system.cpu_voltage_domain.voltage                   1                       # Voltage in Volts
system.cpu_clk_domain.clock                       500                       # Clock period in ticks
system.cpu0.dtb.walker.pwrStateResidencyTicks::UNDEFINED  15267344125                       # Cumulative time (in ticks) in various power states
system.cpu0.dtb.rdAccesses                    1200885                       # TLB accesses on read requests
system.cpu0.dtb.wrAccesses                     100270                       # TLB accesses on write requests
system.cpu0.dtb.rdMisses                       237334                       # TLB misses on read requests
system.cpu0.dtb.wrMisses                         1651                       # TLB misses on write requests
system.cpu0.apic_clk_domain.clock                8000                       # Clock period in ticks
system.cpu0.interrupts.pwrStateResidencyTicks::UNDEFINED  15267344125                       # Cumulative time (in ticks) in various power states
system.cpu0.itb.walker.pwrStateResidencyTicks::UNDEFINED  15267344125                       # Cumulative time (in ticks) in various power states
system.cpu0.itb.rdAccesses                          0                       # TLB accesses on read requests
system.cpu0.itb.wrAccesses                    1949361                       # TLB accesses on write requests
system.cpu0.itb.rdMisses                            0                       # TLB misses on read requests
system.cpu0.itb.wrMisses                         8165                       # TLB misses on write requests
system.cpu0.workload.numSyscalls                    1                       # Number of system calls
system.cpu0.pwrStateResidencyTicks::ON    15267344125                       # Cumulative time (in ticks) in various power states
system.cpu0.numCycles                        30534689                       # number of cpu cycles simulated
system.cpu0.numWorkItemsStarted                     0                       # number of work items this cpu started
system.cpu0.numWorkItemsCompleted                   0                       # number of work items this cpu completed
system.cpu0.fetch.icacheStallCycles           2000341                       # Number of cycles fetch is stalled on an Icache miss
system.cpu0.fetch.Insts                       7187561                       # Number of instructions fetch has processed
system.cpu0.fetch.Branches                    2400052                       # Number of branches that fetch encountered
system.cpu0.fetch.predictedBranches           1084529                       # Number of branches that fetch has predicted taken
system.cpu0.fetch.Cycles                     28289545                       # Number of cycles fetch has run and was not squashing or blocked
system.cpu0.fetch.SquashCycles                 226374                       # Number of cycles fetch has spent squashing
system.cpu0.fetch.TlbCycles                      2247                       # Number of cycles fetch has spent waiting for tlb
system.cpu0.fetch.MiscStallCycles                1840                       # Number of cycles fetch has spent waiting on interrupts, or bad addresses, or out of MSHRs
system.cpu0.fetch.PendingTrapStallCycles        68303                       # Number of stall cycles due to pending traps
system.cpu0.fetch.PendingQuiesceStallCycles            1                       # Number of stall cycles due to pending quiesce instructions
system.cpu0.fetch.CacheLines                  1941196                       # Number of cache lines fetched
system.cpu0.fetch.IcacheSquashes                15985                       # Number of outstanding Icache misses that were squashed
system.cpu0.fetch.ItlbSquashes                     11                       # Number of outstanding ITLB misses that were squashed
system.cpu0.fetch.rateDist::samples          30475464                       # Number of instructions fetched each cycle (Total)
system.cpu0.fetch.rateDist::mean             0.475855                       # Number of instructions fetched each cycle (Total)
system.cpu0.fetch.rateDist::stdev            1.720901                       # Number of instructions fetched each cycle (Total)
system.cpu0.fetch.rateDist::underflows              0      0.00%      0.00% # Number of instructions fetched each cycle (Total)
system.cpu0.fetch.rateDist::0                27731949     91.00%     91.00% # Number of instructions fetched each cycle (Total)
system.cpu0.fetch.rateDist::1                   28163      0.09%     91.09% # Number of instructions fetched each cycle (Total)
system.cpu0.fetch.rateDist::2                  925540      3.04%     94.13% # Number of instructions fetched each cycle (Total)
system.cpu0.fetch.rateDist::3                   50734      0.17%     94.29% # Number of instructions fetched each cycle (Total)
system.cpu0.fetch.rateDist::4                  189851      0.62%     94.92% # Number of instructions fetched each cycle (Total)
system.cpu0.fetch.rateDist::5                  126608      0.42%     95.33% # Number of instructions fetched each cycle (Total)
system.cpu0.fetch.rateDist::6                  130385      0.43%     95.76% # Number of instructions fetched each cycle (Total)
system.cpu0.fetch.rateDist::7                   42182      0.14%     95.90% # Number of instructions fetched each cycle (Total)
system.cpu0.fetch.rateDist::8                 1250052      4.10%    100.00% # Number of instructions fetched each cycle (Total)
system.cpu0.fetch.rateDist::overflows               0      0.00%    100.00% # Number of instructions fetched each cycle (Total)
system.cpu0.fetch.rateDist::min_value               0                       # Number of instructions fetched each cycle (Total)
system.cpu0.fetch.rateDist::max_value               8                       # Number of instructions fetched each cycle (Total)
system.cpu0.fetch.rateDist::total            30475464                       # Number of instructions fetched each cycle (Total)
system.cpu0.fetch.branchRate                 0.078601                       # Number of branch fetches per cycle
system.cpu0.fetch.rate                       0.235390                       # Number of inst fetches per cycle
system.cpu0.decode.IdleCycles                 1033814                       # Number of cycles decode is idle
system.cpu0.decode.BlockedCycles             27488512                       # Number of cycles decode is blocked
system.cpu0.decode.RunCycles                  1385009                       # Number of cycles decode is running
system.cpu0.decode.UnblockCycles               454942                       # Number of cycles decode is unblocking
system.cpu0.decode.SquashCycles                113187                       # Number of cycles decode is squashing
system.cpu0.decode.DecodedInsts              12066962                       # Number of instructions handled by decode
system.cpu0.rename.SquashCycles                113187                       # Number of cycles rename is squashing
system.cpu0.rename.IdleCycles                 1192715                       # Number of cycles rename is idle
system.cpu0.rename.BlockCycles               25721758                       # Number of cycles rename is blocking
system.cpu0.rename.serializeStallCycles         17814                       # count of cycles rename stalled for serializing inst
system.cpu0.rename.RunCycles                  1579969                       # Number of cycles rename is running
system.cpu0.rename.UnblockCycles              1850021                       # Number of cycles rename is unblocking
system.cpu0.rename.RenamedInsts              11542592                       # Number of instructions processed by rename
system.cpu0.rename.ROBFullEvents               121162                       # Number of times rename has blocked due to ROB full
system.cpu0.rename.IQFullEvents               1433976                       # Number of times rename has blocked due to IQ full
system.cpu0.rename.LQFullEvents                348009                       # Number of times rename has blocked due to LQ full
system.cpu0.rename.SQFullEvents                  3069                       # Number of times rename has blocked due to SQ full
system.cpu0.rename.RenamedOperands           13758389                       # Number of destination operands rename has renamed
system.cpu0.rename.RenameLookups             31881398                       # Number of register rename lookups that rename has made
system.cpu0.rename.int_rename_lookups        15364388                       # Number of integer rename lookups
system.cpu0.rename.fp_rename_lookups            69785                       # Number of floating rename lookups
system.cpu0.rename.CommittedMaps              4971951                       # Number of HB maps that are committed
system.cpu0.rename.UndoneMaps                 8786438                       # Number of HB maps that are undone due to squashing
system.cpu0.rename.serializingInsts               341                       # count of serializing insts renamed
system.cpu0.rename.tempSerializingInsts           439                       # count of temporary serializing insts renamed
system.cpu0.rename.skidInsts                  2838319                       # count of insts added to the skid buffer
system.cpu0.memDep0.insertedLoads             2024781                       # Number of loads inserted to the mem dependence unit.
system.cpu0.memDep0.insertedStores             146042                       # Number of stores inserted to the mem dependence unit.
system.cpu0.memDep0.conflictingLoads             8450                       # Number of conflicting loads.
system.cpu0.memDep0.conflictingStores            7874                       # Number of conflicting stores.
system.cpu0.iq.iqInstsAdded                  10889526                       # Number of instructions added to the IQ (excludes non-spec)
system.cpu0.iq.iqNonSpecInstsAdded               7568                       # Number of non-speculative instructions added to the IQ
system.cpu0.iq.iqInstsIssued                  7967576                       # Number of instructions issued
system.cpu0.iq.iqSquashedInstsIssued            12713                       # Number of squashed instructions issued
system.cpu0.iq.iqSquashedInstsExamined        6756929                       # Number of squashed instructions iterated over during squash; mainly for profiling
system.cpu0.iq.iqSquashedOperandsExamined     13449410                       # Number of squashed operands that are examined and possibly removed from graph
system.cpu0.iq.iqSquashedNonSpecRemoved          7567                       # Number of squashed non-spec instructions that were removed
system.cpu0.iq.issued_per_cycle::samples     30475464                       # Number of insts issued each cycle
system.cpu0.iq.issued_per_cycle::mean        0.261442                       # Number of insts issued each cycle
system.cpu0.iq.issued_per_cycle::stdev       0.940806                       # Number of insts issued each cycle
system.cpu0.iq.issued_per_cycle::underflows            0      0.00%      0.00% # Number of insts issued each cycle
system.cpu0.iq.issued_per_cycle::0           27349090     89.74%     89.74% # Number of insts issued each cycle
system.cpu0.iq.issued_per_cycle::1            1166497      3.83%     93.57% # Number of insts issued each cycle
system.cpu0.iq.issued_per_cycle::2             657209      2.16%     95.73% # Number of insts issued each cycle
system.cpu0.iq.issued_per_cycle::3             459882      1.51%     97.23% # Number of insts issued each cycle
system.cpu0.iq.issued_per_cycle::4             453521      1.49%     98.72% # Number of insts issued each cycle
system.cpu0.iq.issued_per_cycle::5             167731      0.55%     99.27% # Number of insts issued each cycle
system.cpu0.iq.issued_per_cycle::6             132641      0.44%     99.71% # Number of insts issued each cycle
system.cpu0.iq.issued_per_cycle::7              52714      0.17%     99.88% # Number of insts issued each cycle
system.cpu0.iq.issued_per_cycle::8              36179      0.12%    100.00% # Number of insts issued each cycle
system.cpu0.iq.issued_per_cycle::overflows            0      0.00%    100.00% # Number of insts issued each cycle
system.cpu0.iq.issued_per_cycle::min_value            0                       # Number of insts issued each cycle
system.cpu0.iq.issued_per_cycle::max_value            8                       # Number of insts issued each cycle
system.cpu0.iq.issued_per_cycle::total       30475464                       # Number of insts issued each cycle
system.cpu0.iq.fu_full::No_OpClass                  0      0.00%      0.00% # attempts to use FU when none available
system.cpu0.iq.fu_full::IntAlu                  22509     69.41%     69.41% # attempts to use FU when none available
system.cpu0.iq.fu_full::IntMult                     0      0.00%     69.41% # attempts to use FU when none available
system.cpu0.iq.fu_full::IntDiv                      0      0.00%     69.41% # attempts to use FU when none available
system.cpu0.iq.fu_full::FloatAdd                 2071      6.39%     75.79% # attempts to use FU when none available
system.cpu0.iq.fu_full::FloatCmp                    0      0.00%     75.79% # attempts to use FU when none available
system.cpu0.iq.fu_full::FloatCvt                    0      0.00%     75.79% # attempts to use FU when none available
system.cpu0.iq.fu_full::FloatMult                   0      0.00%     75.79% # attempts to use FU when none available
system.cpu0.iq.fu_full::FloatMultAcc                0      0.00%     75.79% # attempts to use FU when none available
system.cpu0.iq.fu_full::FloatDiv                    0      0.00%     75.79% # attempts to use FU when none available
system.cpu0.iq.fu_full::FloatMisc                   0      0.00%     75.79% # attempts to use FU when none available
system.cpu0.iq.fu_full::FloatSqrt                   0      0.00%     75.79% # attempts to use FU when none available
system.cpu0.iq.fu_full::SimdAdd                     0      0.00%     75.79% # attempts to use FU when none available
system.cpu0.iq.fu_full::SimdAddAcc                  0      0.00%     75.79% # attempts to use FU when none available
system.cpu0.iq.fu_full::SimdAlu                     0      0.00%     75.79% # attempts to use FU when none available
system.cpu0.iq.fu_full::SimdCmp                     0      0.00%     75.79% # attempts to use FU when none available
system.cpu0.iq.fu_full::SimdCvt                     0      0.00%     75.79% # attempts to use FU when none available
system.cpu0.iq.fu_full::SimdMisc                    0      0.00%     75.79% # attempts to use FU when none available
system.cpu0.iq.fu_full::SimdMult                    0      0.00%     75.79% # attempts to use FU when none available
system.cpu0.iq.fu_full::SimdMultAcc                 0      0.00%     75.79% # attempts to use FU when none available
system.cpu0.iq.fu_full::SimdShift                   0      0.00%     75.79% # attempts to use FU when none available
system.cpu0.iq.fu_full::SimdShiftAcc                0      0.00%     75.79% # attempts to use FU when none available
system.cpu0.iq.fu_full::SimdSqrt                    0      0.00%     75.79% # attempts to use FU when none available
system.cpu0.iq.fu_full::SimdFloatAdd                0      0.00%     75.79% # attempts to use FU when none available
system.cpu0.iq.fu_full::SimdFloatAlu                0      0.00%     75.79% # attempts to use FU when none available
system.cpu0.iq.fu_full::SimdFloatCmp                0      0.00%     75.79% # attempts to use FU when none available
system.cpu0.iq.fu_full::SimdFloatCvt                0      0.00%     75.79% # attempts to use FU when none available
system.cpu0.iq.fu_full::SimdFloatDiv                0      0.00%     75.79% # attempts to use FU when none available
system.cpu0.iq.fu_full::SimdFloatMisc               0      0.00%     75.79% # attempts to use FU when none available
system.cpu0.iq.fu_full::SimdFloatMult               0      0.00%     75.79% # attempts to use FU when none available
system.cpu0.iq.fu_full::SimdFloatMultAcc            0      0.00%     75.79% # attempts to use FU when none available
system.cpu0.iq.fu_full::SimdFloatSqrt               0      0.00%     75.79% # attempts to use FU when none available
system.cpu0.iq.fu_full::MemRead                  7099     21.89%     97.68% # attempts to use FU when none available
system.cpu0.iq.fu_full::MemWrite                  473      1.46%     99.14% # attempts to use FU when none available
system.cpu0.iq.fu_full::FloatMemRead              213      0.66%     99.80% # attempts to use FU when none available
system.cpu0.iq.fu_full::FloatMemWrite              66      0.20%    100.00% # attempts to use FU when none available
system.cpu0.iq.fu_full::IprAccess                   0      0.00%    100.00% # attempts to use FU when none available
system.cpu0.iq.fu_full::InstPrefetch                0      0.00%    100.00% # attempts to use FU when none available
system.cpu0.iq.FU_type_0::No_OpClass            30619      0.38%      0.38% # Type of FU issued
system.cpu0.iq.FU_type_0::IntAlu              6515584     81.78%     82.16% # Type of FU issued
system.cpu0.iq.FU_type_0::IntMult                2119      0.03%     82.19% # Type of FU issued
system.cpu0.iq.FU_type_0::IntDiv                19517      0.24%     82.43% # Type of FU issued
system.cpu0.iq.FU_type_0::FloatAdd              26522      0.33%     82.76% # Type of FU issued
system.cpu0.iq.FU_type_0::FloatCmp                  0      0.00%     82.76% # Type of FU issued
system.cpu0.iq.FU_type_0::FloatCvt                  0      0.00%     82.76% # Type of FU issued
system.cpu0.iq.FU_type_0::FloatMult                 0      0.00%     82.76% # Type of FU issued
system.cpu0.iq.FU_type_0::FloatMultAcc              0      0.00%     82.76% # Type of FU issued
system.cpu0.iq.FU_type_0::FloatDiv                  0      0.00%     82.76% # Type of FU issued
system.cpu0.iq.FU_type_0::FloatMisc                 0      0.00%     82.76% # Type of FU issued
system.cpu0.iq.FU_type_0::FloatSqrt                 0      0.00%     82.76% # Type of FU issued
system.cpu0.iq.FU_type_0::SimdAdd                   0      0.00%     82.76% # Type of FU issued
system.cpu0.iq.FU_type_0::SimdAddAcc                0      0.00%     82.76% # Type of FU issued
system.cpu0.iq.FU_type_0::SimdAlu                   0      0.00%     82.76% # Type of FU issued
system.cpu0.iq.FU_type_0::SimdCmp                   0      0.00%     82.76% # Type of FU issued
system.cpu0.iq.FU_type_0::SimdCvt                   0      0.00%     82.76% # Type of FU issued
system.cpu0.iq.FU_type_0::SimdMisc                  0      0.00%     82.76% # Type of FU issued
system.cpu0.iq.FU_type_0::SimdMult                  0      0.00%     82.76% # Type of FU issued
system.cpu0.iq.FU_type_0::SimdMultAcc               0      0.00%     82.76% # Type of FU issued
system.cpu0.iq.FU_type_0::SimdShift                 0      0.00%     82.76% # Type of FU issued
system.cpu0.iq.FU_type_0::SimdShiftAcc              0      0.00%     82.76% # Type of FU issued
system.cpu0.iq.FU_type_0::SimdSqrt                  0      0.00%     82.76% # Type of FU issued
system.cpu0.iq.FU_type_0::SimdFloatAdd              0      0.00%     82.76% # Type of FU issued
system.cpu0.iq.FU_type_0::SimdFloatAlu              0      0.00%     82.76% # Type of FU issued
system.cpu0.iq.FU_type_0::SimdFloatCmp              0      0.00%     82.76% # Type of FU issued
system.cpu0.iq.FU_type_0::SimdFloatCvt              0      0.00%     82.76% # Type of FU issued
system.cpu0.iq.FU_type_0::SimdFloatDiv              0      0.00%     82.76% # Type of FU issued
system.cpu0.iq.FU_type_0::SimdFloatMisc             0      0.00%     82.76% # Type of FU issued
system.cpu0.iq.FU_type_0::SimdFloatMult             0      0.00%     82.76% # Type of FU issued
system.cpu0.iq.FU_type_0::SimdFloatMultAcc            0      0.00%     82.76% # Type of FU issued
system.cpu0.iq.FU_type_0::SimdFloatSqrt             0      0.00%     82.76% # Type of FU issued
system.cpu0.iq.FU_type_0::MemRead             1260317     15.82%     98.58% # Type of FU issued
system.cpu0.iq.FU_type_0::MemWrite             107775      1.35%     99.94% # Type of FU issued
system.cpu0.iq.FU_type_0::FloatMemRead           4875      0.06%    100.00% # Type of FU issued
system.cpu0.iq.FU_type_0::FloatMemWrite           248      0.00%    100.00% # Type of FU issued
system.cpu0.iq.FU_type_0::IprAccess                 0      0.00%    100.00% # Type of FU issued
system.cpu0.iq.FU_type_0::InstPrefetch              0      0.00%    100.00% # Type of FU issued
system.cpu0.iq.FU_type_0::total               7967576                       # Type of FU issued
system.cpu0.iq.rate                          0.260935                       # Inst issue rate
system.cpu0.iq.fu_busy_cnt                      32431                       # FU busy when requested
system.cpu0.iq.fu_busy_rate                  0.004070                       # FU busy rate (busy events/executed inst)
system.cpu0.iq.int_inst_queue_reads          46389733                       # Number of integer instruction queue reads
system.cpu0.iq.int_inst_queue_writes         17596336                       # Number of integer instruction queue writes
system.cpu0.iq.int_inst_queue_wakeup_accesses      7607119                       # Number of integer instruction queue wakeup accesses
system.cpu0.iq.fp_inst_queue_reads              66027                       # Number of floating instruction queue reads
system.cpu0.iq.fp_inst_queue_writes             57696                       # Number of floating instruction queue writes
system.cpu0.iq.fp_inst_queue_wakeup_accesses        29252                       # Number of floating instruction queue wakeup accesses
system.cpu0.iq.vec_inst_queue_reads                 0                       # Number of vector instruction queue reads
system.cpu0.iq.vec_inst_queue_writes                0                       # Number of vector instruction queue writes
system.cpu0.iq.vec_inst_queue_wakeup_accesses            0                       # Number of vector instruction queue wakeup accesses
system.cpu0.iq.int_alu_accesses               7935370                       # Number of integer alu accesses
system.cpu0.iq.fp_alu_accesses                  34018                       # Number of floating point alu accesses
system.cpu0.iq.vec_alu_accesses                     0                       # Number of vector alu accesses
system.cpu0.iew.lsq.thread0.forwLoads            9535                       # Number of loads that had data forwarded from stores
system.cpu0.iew.lsq.thread0.invAddrLoads            0                       # Number of loads ignored due to an invalid address
system.cpu0.iew.lsq.thread0.squashedLoads      1263953                       # Number of loads squashed
system.cpu0.iew.lsq.thread0.ignoredResponses          294                       # Number of memory responses ignored because the instruction is squashed
system.cpu0.iew.lsq.thread0.memOrderViolation            9                       # Number of memory ordering violations
system.cpu0.iew.lsq.thread0.squashedStores        90326                       # Number of stores squashed
system.cpu0.iew.lsq.thread0.invAddrSwpfs            0                       # Number of software prefetches ignored due to an invalid address
system.cpu0.iew.lsq.thread0.blockedLoads            0                       # Number of blocked loads due to partial load-store forwarding
system.cpu0.iew.lsq.thread0.rescheduledLoads           93                       # Number of loads that were rescheduled
system.cpu0.iew.lsq.thread0.cacheBlocked         2006                       # Number of times an access to memory failed due to the cache being blocked
system.cpu0.iew.iewIdleCycles                       0                       # Number of cycles IEW is idle
system.cpu0.iew.iewSquashCycles                113187                       # Number of cycles IEW is squashing
system.cpu0.iew.iewBlockCycles               23024389                       # Number of cycles IEW is blocking
system.cpu0.iew.iewUnblockCycles               351858                       # Number of cycles IEW is unblocking
system.cpu0.iew.iewDispatchedInsts           10897094                       # Number of instructions dispatched to IQ
system.cpu0.iew.iewDispSquashedInsts             7713                       # Number of squashed instructions skipped by dispatch
system.cpu0.iew.iewDispLoadInsts              2024781                       # Number of dispatched load instructions
system.cpu0.iew.iewDispStoreInsts              146042                       # Number of dispatched store instructions
system.cpu0.iew.iewDispNonSpecInsts              2745                       # Number of dispatched non-speculative instructions
system.cpu0.iew.iewIQFullEvents                 23700                       # Number of times the IQ has become full, causing a stall
system.cpu0.iew.iewLSQFullEvents                90881                       # Number of times the LSQ has become full, causing a stall
system.cpu0.iew.memOrderViolationEvents             9                       # Number of memory order violations
system.cpu0.iew.predictedTakenIncorrect         59590                       # Number of branches that were predicted taken incorrectly
system.cpu0.iew.predictedNotTakenIncorrect        67309                       # Number of branches that were predicted not taken incorrectly
system.cpu0.iew.branchMispredicts              126899                       # Number of branch mispredicts detected at execute
system.cpu0.iew.iewExecutedInsts              7799530                       # Number of executed instructions
system.cpu0.iew.iewExecLoadInsts              1200378                       # Number of load instructions executed
system.cpu0.iew.iewExecSquashedInsts           168046                       # Number of squashed instructions skipped in execute
system.cpu0.iew.exec_swp                            0                       # number of swp insts executed
system.cpu0.iew.exec_nop                            0                       # number of nop insts executed
system.cpu0.iew.exec_refs                     1300625                       # number of memory reference insts executed
system.cpu0.iew.exec_branches                  938023                       # Number of branches executed
system.cpu0.iew.exec_stores                    100247                       # Number of stores executed
system.cpu0.iew.exec_rate                    0.255432                       # Inst execution rate
system.cpu0.iew.wb_sent                       7667935                       # cumulative count of insts sent to commit
system.cpu0.iew.wb_count                      7636371                       # cumulative count of insts written-back
system.cpu0.iew.wb_producers                  5637476                       # num instructions producing a value
system.cpu0.iew.wb_consumers                  9063105                       # num instructions consuming a value
system.cpu0.iew.wb_rate                      0.250088                       # insts written-back per cycle
system.cpu0.iew.wb_fanout                    0.622025                       # average fanout of values written-back
system.cpu0.commit.commitSquashedInsts        6758232                       # The number of squashed insts skipped by commit
system.cpu0.commit.commitNonSpecStalls              1                       # The number of times commit has been forced to stall to communicate backwards
system.cpu0.commit.branchMispredicts           113182                       # The number of times a branch was mispredicted
system.cpu0.commit.committed_per_cycle::samples     29504701                       # Number of insts commited each cycle
system.cpu0.commit.committed_per_cycle::mean     0.140322                       # Number of insts commited each cycle
system.cpu0.commit.committed_per_cycle::stdev     0.707863                       # Number of insts commited each cycle
system.cpu0.commit.committed_per_cycle::underflows            0      0.00%      0.00% # Number of insts commited each cycle
system.cpu0.commit.committed_per_cycle::0     27781051     94.16%     94.16% # Number of insts commited each cycle
system.cpu0.commit.committed_per_cycle::1       773251      2.62%     96.78% # Number of insts commited each cycle
system.cpu0.commit.committed_per_cycle::2       194035      0.66%     97.44% # Number of insts commited each cycle
system.cpu0.commit.committed_per_cycle::3       501093      1.70%     99.13% # Number of insts commited each cycle
system.cpu0.commit.committed_per_cycle::4        92304      0.31%     99.45% # Number of insts commited each cycle
system.cpu0.commit.committed_per_cycle::5        56563      0.19%     99.64% # Number of insts commited each cycle
system.cpu0.commit.committed_per_cycle::6        10161      0.03%     99.67% # Number of insts commited each cycle
system.cpu0.commit.committed_per_cycle::7         7376      0.02%     99.70% # Number of insts commited each cycle
system.cpu0.commit.committed_per_cycle::8        88867      0.30%    100.00% # Number of insts commited each cycle
system.cpu0.commit.committed_per_cycle::overflows            0      0.00%    100.00% # Number of insts commited each cycle
system.cpu0.commit.committed_per_cycle::min_value            0                       # Number of insts commited each cycle
system.cpu0.commit.committed_per_cycle::max_value            8                       # Number of insts commited each cycle
system.cpu0.commit.committed_per_cycle::total     29504701                       # Number of insts commited each cycle
system.cpu0.commit.committedInsts             2074003                       # Number of instructions committed
system.cpu0.commit.committedOps               4140165                       # Number of ops (including micro ops) committed
system.cpu0.commit.swp_count                        0                       # Number of s/w prefetches committed
system.cpu0.commit.refs                        816544                       # Number of memory references committed
system.cpu0.commit.loads                       760828                       # Number of loads committed
system.cpu0.commit.membars                          0                       # Number of memory barriers committed
system.cpu0.commit.branches                    725459                       # Number of branches committed
system.cpu0.commit.vec_insts                        0                       # Number of committed Vector instructions.
system.cpu0.commit.fp_insts                     22458                       # Number of committed floating point instructions.
system.cpu0.commit.int_insts                  4117519                       # Number of committed integer instructions.
system.cpu0.commit.function_calls                9829                       # Number of function calls committed.
system.cpu0.commit.op_class_0::No_OpClass         6775      0.16%      0.16% # Class of committed instruction
system.cpu0.commit.op_class_0::IntAlu         3280800     79.24%     79.41% # Class of committed instruction
system.cpu0.commit.op_class_0::IntMult            393      0.01%     79.42% # Class of committed instruction
system.cpu0.commit.op_class_0::IntDiv           16489      0.40%     79.81% # Class of committed instruction
system.cpu0.commit.op_class_0::FloatAdd         19164      0.46%     80.28% # Class of committed instruction
system.cpu0.commit.op_class_0::FloatCmp             0      0.00%     80.28% # Class of committed instruction
system.cpu0.commit.op_class_0::FloatCvt             0      0.00%     80.28% # Class of committed instruction
system.cpu0.commit.op_class_0::FloatMult            0      0.00%     80.28% # Class of committed instruction
system.cpu0.commit.op_class_0::FloatMultAcc            0      0.00%     80.28% # Class of committed instruction
system.cpu0.commit.op_class_0::FloatDiv             0      0.00%     80.28% # Class of committed instruction
system.cpu0.commit.op_class_0::FloatMisc            0      0.00%     80.28% # Class of committed instruction
system.cpu0.commit.op_class_0::FloatSqrt            0      0.00%     80.28% # Class of committed instruction
system.cpu0.commit.op_class_0::SimdAdd              0      0.00%     80.28% # Class of committed instruction
system.cpu0.commit.op_class_0::SimdAddAcc            0      0.00%     80.28% # Class of committed instruction
system.cpu0.commit.op_class_0::SimdAlu              0      0.00%     80.28% # Class of committed instruction
system.cpu0.commit.op_class_0::SimdCmp              0      0.00%     80.28% # Class of committed instruction
system.cpu0.commit.op_class_0::SimdCvt              0      0.00%     80.28% # Class of committed instruction
system.cpu0.commit.op_class_0::SimdMisc             0      0.00%     80.28% # Class of committed instruction
system.cpu0.commit.op_class_0::SimdMult             0      0.00%     80.28% # Class of committed instruction
system.cpu0.commit.op_class_0::SimdMultAcc            0      0.00%     80.28% # Class of committed instruction
system.cpu0.commit.op_class_0::SimdShift            0      0.00%     80.28% # Class of committed instruction
system.cpu0.commit.op_class_0::SimdShiftAcc            0      0.00%     80.28% # Class of committed instruction
system.cpu0.commit.op_class_0::SimdSqrt             0      0.00%     80.28% # Class of committed instruction
system.cpu0.commit.op_class_0::SimdFloatAdd            0      0.00%     80.28% # Class of committed instruction
system.cpu0.commit.op_class_0::SimdFloatAlu            0      0.00%     80.28% # Class of committed instruction
system.cpu0.commit.op_class_0::SimdFloatCmp            0      0.00%     80.28% # Class of committed instruction
system.cpu0.commit.op_class_0::SimdFloatCvt            0      0.00%     80.28% # Class of committed instruction
system.cpu0.commit.op_class_0::SimdFloatDiv            0      0.00%     80.28% # Class of committed instruction
system.cpu0.commit.op_class_0::SimdFloatMisc            0      0.00%     80.28% # Class of committed instruction
system.cpu0.commit.op_class_0::SimdFloatMult            0      0.00%     80.28% # Class of committed instruction
system.cpu0.commit.op_class_0::SimdFloatMultAcc            0      0.00%     80.28% # Class of committed instruction
system.cpu0.commit.op_class_0::SimdFloatSqrt            0      0.00%     80.28% # Class of committed instruction
system.cpu0.commit.op_class_0::MemRead         757534     18.30%     98.57% # Class of committed instruction
system.cpu0.commit.op_class_0::MemWrite         55716      1.35%     99.92% # Class of committed instruction
system.cpu0.commit.op_class_0::FloatMemRead         3294      0.08%    100.00% # Class of committed instruction
system.cpu0.commit.op_class_0::FloatMemWrite            0      0.00%    100.00% # Class of committed instruction
system.cpu0.commit.op_class_0::IprAccess            0      0.00%    100.00% # Class of committed instruction
system.cpu0.commit.op_class_0::InstPrefetch            0      0.00%    100.00% # Class of committed instruction
system.cpu0.commit.op_class_0::total          4140165                       # Class of committed instruction
system.cpu0.commit.bw_lim_events                88867                       # number cycles where commit BW limit reached
system.cpu0.rob.rob_reads                    40314231                       # The number of ROB reads
system.cpu0.rob.rob_writes                   22770622                       # The number of ROB writes
system.cpu0.timesIdled                            525                       # Number of times that the entire CPU went into an idle state and unscheduled itself
system.cpu0.idleCycles                          59225                       # Total number of cycles that the CPU has spent unscheduled due to idling
system.cpu0.committedInsts                    2074003                       # Number of Instructions Simulated
system.cpu0.committedOps                      4140165                       # Number of Ops (including micro ops) Simulated
system.cpu0.cpi                             14.722587                       # CPI: Cycles Per Instruction
system.cpu0.cpi_total                       14.722587                       # CPI: Total CPI of All Threads
system.cpu0.ipc                              0.067923                       # IPC: Instructions Per Cycle
system.cpu0.ipc_total                        0.067923                       # IPC: Total IPC of All Threads
system.cpu0.int_regfile_reads                 8146724                       # number of integer regfile reads
system.cpu0.int_regfile_writes                6614457                       # number of integer regfile writes
system.cpu0.fp_regfile_reads                    51718                       # number of floating regfile reads
system.cpu0.fp_regfile_writes                   25776                       # number of floating regfile writes
system.cpu0.cc_regfile_reads                  4935315                       # number of cc regfile reads
system.cpu0.cc_regfile_writes                 2178123                       # number of cc regfile writes
system.cpu0.misc_regfile_reads                4034620                       # number of misc regfile reads
system.cpu0.dcache.tags.pwrStateResidencyTicks::UNDEFINED  15267344125                       # Cumulative time (in ticks) in various power states
system.cpu0.dcache.tags.replacements           383589                       # number of replacements
system.cpu0.dcache.tags.tagsinuse                1024                       # Cycle average of tags in use
system.cpu0.dcache.tags.total_refs             572071                       # Total number of references to valid blocks.
system.cpu0.dcache.tags.sampled_refs           383589                       # Sample count of references to valid blocks.
system.cpu0.dcache.tags.avg_refs             1.491364                       # Average number of references to valid blocks.
system.cpu0.dcache.tags.warmup_cycle                0                       # Cycle when the warmup percentage was hit.
system.cpu0.dcache.tags.occ_blocks::cpu0.data         1024                       # Average occupied blocks per requestor
system.cpu0.dcache.tags.occ_percent::cpu0.data            1                       # Average percentage of cache occupancy
system.cpu0.dcache.tags.occ_percent::total            1                       # Average percentage of cache occupancy
system.cpu0.dcache.tags.occ_task_id_blocks::1024         1024                       # Occupied blocks per task id
system.cpu0.dcache.tags.age_task_id_blocks_1024::0          143                       # Occupied blocks per task id
system.cpu0.dcache.tags.age_task_id_blocks_1024::1          862                       # Occupied blocks per task id
system.cpu0.dcache.tags.age_task_id_blocks_1024::2           19                       # Occupied blocks per task id
system.cpu0.dcache.tags.occ_task_id_percent::1024            1                       # Percentage of cache occupancy per task id
system.cpu0.dcache.tags.tag_accesses          5340369                       # Number of tag accesses
system.cpu0.dcache.tags.data_accesses         5340369                       # Number of data accesses
system.cpu0.dcache.pwrStateResidencyTicks::UNDEFINED  15267344125                       # Cumulative time (in ticks) in various power states
system.cpu0.dcache.ReadReq_hits::cpu0.data       518659                       # number of ReadReq hits
system.cpu0.dcache.ReadReq_hits::total         518659                       # number of ReadReq hits
system.cpu0.dcache.WriteReq_hits::cpu0.data        54114                       # number of WriteReq hits
system.cpu0.dcache.WriteReq_hits::total         54114                       # number of WriteReq hits
system.cpu0.dcache.demand_hits::cpu0.data       572773                       # number of demand (read+write) hits
system.cpu0.dcache.demand_hits::total          572773                       # number of demand (read+write) hits
system.cpu0.dcache.overall_hits::cpu0.data       572773                       # number of overall hits
system.cpu0.dcache.overall_hits::total         572773                       # number of overall hits
system.cpu0.dcache.ReadReq_misses::cpu0.data       664820                       # number of ReadReq misses
system.cpu0.dcache.ReadReq_misses::total       664820                       # number of ReadReq misses
system.cpu0.dcache.WriteReq_misses::cpu0.data         1602                       # number of WriteReq misses
system.cpu0.dcache.WriteReq_misses::total         1602                       # number of WriteReq misses
system.cpu0.dcache.demand_misses::cpu0.data       666422                       # number of demand (read+write) misses
system.cpu0.dcache.demand_misses::total        666422                       # number of demand (read+write) misses
system.cpu0.dcache.overall_misses::cpu0.data       666422                       # number of overall misses
system.cpu0.dcache.overall_misses::total       666422                       # number of overall misses
system.cpu0.dcache.ReadReq_miss_latency::cpu0.data  33740862000                       # number of ReadReq miss cycles
system.cpu0.dcache.ReadReq_miss_latency::total  33740862000                       # number of ReadReq miss cycles
system.cpu0.dcache.WriteReq_miss_latency::cpu0.data     70470499                       # number of WriteReq miss cycles
system.cpu0.dcache.WriteReq_miss_latency::total     70470499                       # number of WriteReq miss cycles
system.cpu0.dcache.demand_miss_latency::cpu0.data  33811332499                       # number of demand (read+write) miss cycles
system.cpu0.dcache.demand_miss_latency::total  33811332499                       # number of demand (read+write) miss cycles
system.cpu0.dcache.overall_miss_latency::cpu0.data  33811332499                       # number of overall miss cycles
system.cpu0.dcache.overall_miss_latency::total  33811332499                       # number of overall miss cycles
system.cpu0.dcache.ReadReq_accesses::cpu0.data      1183479                       # number of ReadReq accesses(hits+misses)
system.cpu0.dcache.ReadReq_accesses::total      1183479                       # number of ReadReq accesses(hits+misses)
system.cpu0.dcache.WriteReq_accesses::cpu0.data        55716                       # number of WriteReq accesses(hits+misses)
system.cpu0.dcache.WriteReq_accesses::total        55716                       # number of WriteReq accesses(hits+misses)
system.cpu0.dcache.demand_accesses::cpu0.data      1239195                       # number of demand (read+write) accesses
system.cpu0.dcache.demand_accesses::total      1239195                       # number of demand (read+write) accesses
[...]
system.l2.ReadExReq_miss_rate::cpu0.data     0.332914                       # miss rate for ReadExReq accesses
system.l2.ReadExReq_miss_rate::total         0.332914                       # miss rate for ReadExReq accesses
system.l2.ReadCleanReq_miss_rate::cpu0.inst     0.500000                       # miss rate for ReadCleanReq accesses
system.l2.ReadCleanReq_miss_rate::total      0.500000                       # miss rate for ReadCleanReq accesses
system.l2.ReadSharedReq_miss_rate::cpu0.data     0.430841                       # miss rate for ReadSharedReq accesses
system.l2.ReadSharedReq_miss_rate::total     0.430841                       # miss rate for ReadSharedReq accesses
system.l2.demand_miss_rate::cpu0.inst        0.500000                       # miss rate for demand accesses
system.l2.demand_miss_rate::cpu0.data        0.430436                       # miss rate for demand accesses
system.l2.demand_miss_rate::total            0.430436                       # miss rate for demand accesses
system.l2.overall_miss_rate::cpu0.inst       0.500000                       # miss rate for overall accesses
system.l2.overall_miss_rate::cpu0.data       0.430436                       # miss rate for overall accesses
system.l2.overall_miss_rate::total           0.430436                       # miss rate for overall accesses
system.l2.ReadExReq_avg_miss_latency::cpu0.data 101688.090737                       # average ReadExReq miss latency
system.l2.ReadExReq_avg_miss_latency::total 101688.090737                       # average ReadExReq miss latency
system.l2.ReadCleanReq_avg_miss_latency::cpu0.inst       113500                       # average ReadCleanReq miss latency
system.l2.ReadCleanReq_avg_miss_latency::total       113500                       # average ReadCleanReq miss latency
system.l2.ReadSharedReq_avg_miss_latency::cpu0.data 95731.177961                       # average ReadSharedReq miss latency
system.l2.ReadSharedReq_avg_miss_latency::total 95731.177961                       # average ReadSharedReq miss latency
system.l2.demand_avg_miss_latency::cpu0.inst       113500                       # average overall miss latency
system.l2.demand_avg_miss_latency::cpu0.data 95750.263461                       # average overall miss latency
system.l2.demand_avg_miss_latency::total 95750.370963                       # average overall miss latency
system.l2.overall_avg_miss_latency::cpu0.inst       113500                       # average overall miss latency
system.l2.overall_avg_miss_latency::cpu0.data 95750.263461                       # average overall miss latency
system.l2.overall_avg_miss_latency::total 95750.370963                       # average overall miss latency
system.l2.blocked_cycles::no_mshrs                  0                       # number of cycles access was blocked
system.l2.blocked_cycles::no_targets                0                       # number of cycles access was blocked
system.l2.blocked::no_mshrs                         0                       # number of cycles access was blocked
system.l2.blocked::no_targets                       0                       # number of cycles access was blocked
system.l2.avg_blocked_cycles::no_mshrs            nan                       # average number of cycles each access was blocked
system.l2.avg_blocked_cycles::no_targets          nan                       # average number of cycles each access was blocked
system.l2.writebacks::writebacks                  641                       # number of writebacks
system.l2.writebacks::total                       641                       # number of writebacks
system.l2.ReadExReq_mshr_misses::cpu0.data          529                       # number of ReadExReq MSHR misses
system.l2.ReadExReq_mshr_misses::total            529                       # number of ReadExReq MSHR misses
system.l2.ReadCleanReq_mshr_misses::cpu0.inst            1                       # number of ReadCleanReq MSHR misses
system.l2.ReadCleanReq_mshr_misses::total            1                       # number of ReadCleanReq MSHR misses
system.l2.ReadSharedReq_mshr_misses::cpu0.data       164581                       # number of ReadSharedReq MSHR misses
system.l2.ReadSharedReq_mshr_misses::total       164581                       # number of ReadSharedReq MSHR misses
system.l2.demand_mshr_misses::cpu0.inst             1                       # number of demand (read+write) MSHR misses
system.l2.demand_mshr_misses::cpu0.data        165110                       # number of demand (read+write) MSHR misses
system.l2.demand_mshr_misses::total            165111                       # number of demand (read+write) MSHR misses
system.l2.overall_mshr_misses::cpu0.inst            1                       # number of overall MSHR misses
system.l2.overall_mshr_misses::cpu0.data       165110                       # number of overall MSHR misses
system.l2.overall_mshr_misses::total           165111                       # number of overall MSHR misses
system.l2.ReadExReq_mshr_miss_latency::cpu0.data     48503000                       # number of ReadExReq MSHR miss cycles
system.l2.ReadExReq_mshr_miss_latency::total     48503000                       # number of ReadExReq MSHR miss cycles
system.l2.ReadCleanReq_mshr_miss_latency::cpu0.inst       103500                       # number of ReadCleanReq MSHR miss cycles
system.l2.ReadCleanReq_mshr_miss_latency::total       103500                       # number of ReadCleanReq MSHR miss cycles
system.l2.ReadSharedReq_mshr_miss_latency::cpu0.data  14109723000                       # number of ReadSharedReq MSHR miss cycles
system.l2.ReadSharedReq_mshr_miss_latency::total  14109723000                       # number of ReadSharedReq MSHR miss cycles
system.l2.demand_mshr_miss_latency::cpu0.inst       103500                       # number of demand (read+write) MSHR miss cycles
system.l2.demand_mshr_miss_latency::cpu0.data  14158226000                       # number of demand (read+write) MSHR miss cycles
system.l2.demand_mshr_miss_latency::total  14158329500                       # number of demand (read+write) MSHR miss cycles
system.l2.overall_mshr_miss_latency::cpu0.inst       103500                       # number of overall MSHR miss cycles
system.l2.overall_mshr_miss_latency::cpu0.data  14158226000                       # number of overall MSHR miss cycles
system.l2.overall_mshr_miss_latency::total  14158329500                       # number of overall MSHR miss cycles
system.l2.ReadExReq_mshr_miss_rate::cpu0.data     0.332914                       # mshr miss rate for ReadExReq accesses
system.l2.ReadExReq_mshr_miss_rate::total     0.332914                       # mshr miss rate for ReadExReq accesses
system.l2.ReadCleanReq_mshr_miss_rate::cpu0.inst     0.500000                       # mshr miss rate for ReadCleanReq accesses
system.l2.ReadCleanReq_mshr_miss_rate::total     0.500000                       # mshr miss rate for ReadCleanReq accesses
system.l2.ReadSharedReq_mshr_miss_rate::cpu0.data     0.430841                       # mshr miss rate for ReadSharedReq accesses
system.l2.ReadSharedReq_mshr_miss_rate::total     0.430841                       # mshr miss rate for ReadSharedReq accesses
system.l2.demand_mshr_miss_rate::cpu0.inst     0.500000                       # mshr miss rate for demand accesses
system.l2.demand_mshr_miss_rate::cpu0.data     0.430436                       # mshr miss rate for demand accesses
system.l2.demand_mshr_miss_rate::total       0.430436                       # mshr miss rate for demand accesses
system.l2.overall_mshr_miss_rate::cpu0.inst     0.500000                       # mshr miss rate for overall accesses
system.l2.overall_mshr_miss_rate::cpu0.data     0.430436                       # mshr miss rate for overall accesses
system.l2.overall_mshr_miss_rate::total      0.430436                       # mshr miss rate for overall accesses
system.l2.ReadExReq_avg_mshr_miss_latency::cpu0.data 91688.090737                       # average ReadExReq mshr miss latency
system.l2.ReadExReq_avg_mshr_miss_latency::total 91688.090737                       # average ReadExReq mshr miss latency
system.l2.ReadCleanReq_avg_mshr_miss_latency::cpu0.inst       103500                       # average ReadCleanReq mshr miss latency
system.l2.ReadCleanReq_avg_mshr_miss_latency::total       103500                       # average ReadCleanReq mshr miss latency
system.l2.ReadSharedReq_avg_mshr_miss_latency::cpu0.data 85731.177961                       # average ReadSharedReq mshr miss latency
system.l2.ReadSharedReq_avg_mshr_miss_latency::total 85731.177961                       # average ReadSharedReq mshr miss latency
system.l2.demand_avg_mshr_miss_latency::cpu0.inst       103500                       # average overall mshr miss latency
system.l2.demand_avg_mshr_miss_latency::cpu0.data 85750.263461                       # average overall mshr miss latency
system.l2.demand_avg_mshr_miss_latency::total 85750.370963                       # average overall mshr miss latency
system.l2.overall_avg_mshr_miss_latency::cpu0.inst       103500                       # average overall mshr miss latency
system.l2.overall_avg_mshr_miss_latency::cpu0.data 85750.263461                       # average overall mshr miss latency
system.l2.overall_avg_mshr_miss_latency::total 85750.370963                       # average overall mshr miss latency
system.membus.snoop_filter.tot_requests        330223                       # Total number of requests made to the snoop filter.
system.membus.snoop_filter.hit_single_requests       165113                       # Number of requests hitting in the snoop filter with a single holder of the requested data.
system.membus.snoop_filter.hit_multi_requests            0                       # Number of requests hitting in the snoop filter with multiple (>1) holders of the requested data.
system.membus.snoop_filter.tot_snoops               0                       # Total number of snoops made to the snoop filter.
system.membus.snoop_filter.hit_single_snoops            0                       # Number of snoops hitting in the snoop filter with a single holder of the requested data.
system.membus.snoop_filter.hit_multi_snoops            0                       # Number of snoops hitting in the snoop filter with multiple (>1) holders of the requested data.
system.membus.pwrStateResidencyTicks::UNDEFINED  15267344125                       # Cumulative time (in ticks) in various power states
system.membus.trans_dist::ReadResp             164582                       # Transaction distribution
system.membus.trans_dist::WritebackDirty          641                       # Transaction distribution
system.membus.trans_dist::CleanEvict           164471                       # Transaction distribution
system.membus.trans_dist::ReadExReq               529                       # Transaction distribution
system.membus.trans_dist::ReadExResp              529                       # Transaction distribution
system.membus.trans_dist::ReadSharedReq        164582                       # Transaction distribution
system.membus.pkt_count_system.l2.mem_side::system.mem_ctrls.port       495334                       # Packet count per connected master and slave (bytes)
system.membus.pkt_count_system.l2.mem_side::total       495334                       # Packet count per connected master and slave (bytes)
system.membus.pkt_count::total                 495334                       # Packet count per connected master and slave (bytes)
system.membus.pkt_size_system.l2.mem_side::system.mem_ctrls.port     10608128                       # Cumulative packet size per connected master and slave (bytes)
system.membus.pkt_size_system.l2.mem_side::total     10608128                       # Cumulative packet size per connected master and slave (bytes)
system.membus.pkt_size::total                10608128                       # Cumulative packet size per connected master and slave (bytes)
system.membus.snoops                                0                       # Total snoops (count)
system.membus.snoopTraffic                          0                       # Total snoop traffic (bytes)
system.membus.snoop_fanout::samples            165111                       # Request fanout histogram
system.membus.snoop_fanout::mean                    0                       # Request fanout histogram
system.membus.snoop_fanout::stdev                   0                       # Request fanout histogram
system.membus.snoop_fanout::underflows              0      0.00%      0.00% # Request fanout histogram
system.membus.snoop_fanout::0                  165111    100.00%    100.00% # Request fanout histogram
system.membus.snoop_fanout::1                       0      0.00%    100.00% # Request fanout histogram
system.membus.snoop_fanout::overflows               0      0.00%    100.00% # Request fanout histogram
system.membus.snoop_fanout::min_value               0                       # Request fanout histogram
system.membus.snoop_fanout::max_value               0                       # Request fanout histogram
system.membus.snoop_fanout::total              165111                       # Request fanout histogram
system.membus.reqLayer8.occupancy           388340500                       # Layer occupancy (ticks)
system.membus.reqLayer8.utilization               2.5                       # Layer utilization (%)
system.membus.respLayer1.occupancy          897317750                       # Layer occupancy (ticks)
system.membus.respLayer1.utilization              5.9                       # Layer utilization (%)
system.tol2bus.snoop_filter.tot_requests       767181                       # Total number of requests made to the snoop filter.
system.tol2bus.snoop_filter.hit_single_requests       383592                       # Number of requests hitting in the snoop filter with a single holder of the requested data.
system.tol2bus.snoop_filter.hit_multi_requests          873                       # Number of requests hitting in the snoop filter with multiple (>1) holders of the requested data.
system.tol2bus.snoop_filter.tot_snoops              2                       # Total number of snoops made to the snoop filter.
system.tol2bus.snoop_filter.hit_single_snoops            2                       # Number of snoops hitting in the snoop filter with a single holder of the requested data.
system.tol2bus.snoop_filter.hit_multi_snoops            0                       # Number of snoops hitting in the snoop filter with multiple (>1) holders of the requested data.
system.tol2bus.pwrStateResidencyTicks::UNDEFINED  15267344125                       # Cumulative time (in ticks) in various power states
system.tol2bus.trans_dist::ReadResp            382002                       # Transaction distribution
system.tol2bus.trans_dist::WritebackDirty         5245                       # Transaction distribution
system.tol2bus.trans_dist::WritebackClean            2                       # Transaction distribution
system.tol2bus.trans_dist::CleanEvict          543457                       # Transaction distribution
system.tol2bus.trans_dist::ReadExReq             1589                       # Transaction distribution
system.tol2bus.trans_dist::ReadExResp            1589                       # Transaction distribution
system.tol2bus.trans_dist::ReadCleanReq             2                       # Transaction distribution
system.tol2bus.trans_dist::ReadSharedReq       381999                       # Transaction distribution
system.tol2bus.pkt_count_system.cpu0.icache.mem_side::system.l2.cpu_side            6                       # Packet count per connected master and slave (bytes)
system.tol2bus.pkt_count_system.cpu0.dcache.mem_side::system.l2.cpu_side      1150766                       # Packet count per connected master and slave (bytes)
system.tol2bus.pkt_count::total               1150772                       # Packet count per connected master and slave (bytes)
system.tol2bus.pkt_size_system.cpu0.icache.mem_side::system.l2.cpu_side          256                       # Cumulative packet size per connected master and slave (bytes)
system.tol2bus.pkt_size_system.cpu0.dcache.mem_side::system.l2.cpu_side     24844352                       # Cumulative packet size per connected master and slave (bytes)
system.tol2bus.pkt_size::total               24844608                       # Cumulative packet size per connected master and slave (bytes)
system.tol2bus.snoops                          165113                       # Total snoops (count)
system.tol2bus.snoopTraffic                     41024                       # Total snoop traffic (bytes)
system.tol2bus.snoop_fanout::samples           548703                       # Request fanout histogram
system.tol2bus.snoop_fanout::mean            0.001596                       # Request fanout histogram
system.tol2bus.snoop_fanout::stdev           0.039924                       # Request fanout histogram
system.tol2bus.snoop_fanout::underflows             0      0.00%      0.00% # Request fanout histogram
system.tol2bus.snoop_fanout::0                 547827     99.84%     99.84% # Request fanout histogram
system.tol2bus.snoop_fanout::1                    876      0.16%    100.00% # Request fanout histogram
system.tol2bus.snoop_fanout::2                      0      0.00%    100.00% # Request fanout histogram
system.tol2bus.snoop_fanout::3                      0      0.00%    100.00% # Request fanout histogram
system.tol2bus.snoop_fanout::4                      0      0.00%    100.00% # Request fanout histogram
system.tol2bus.snoop_fanout::5                      0      0.00%    100.00% # Request fanout histogram
system.tol2bus.snoop_fanout::6                      0      0.00%    100.00% # Request fanout histogram
system.tol2bus.snoop_fanout::7                      0      0.00%    100.00% # Request fanout histogram
system.tol2bus.snoop_fanout::8                      0      0.00%    100.00% # Request fanout histogram
system.tol2bus.snoop_fanout::9                      0      0.00%    100.00% # Request fanout histogram
system.tol2bus.snoop_fanout::10                     0      0.00%    100.00% # Request fanout histogram
system.tol2bus.snoop_fanout::11                     0      0.00%    100.00% # Request fanout histogram
system.tol2bus.snoop_fanout::12                     0      0.00%    100.00% # Request fanout histogram
system.tol2bus.snoop_fanout::13                     0      0.00%    100.00% # Request fanout histogram
system.tol2bus.snoop_fanout::14                     0      0.00%    100.00% # Request fanout histogram
system.tol2bus.snoop_fanout::15                     0      0.00%    100.00% # Request fanout histogram
system.tol2bus.snoop_fanout::16                     0      0.00%    100.00% # Request fanout histogram
system.tol2bus.snoop_fanout::overflows              0      0.00%    100.00% # Request fanout histogram
system.tol2bus.snoop_fanout::min_value              0                       # Request fanout histogram
system.tol2bus.snoop_fanout::max_value              1                       # Request fanout histogram
system.tol2bus.snoop_fanout::total             548703                       # Request fanout histogram
system.tol2bus.reqLayer0.occupancy          388196500                       # Layer occupancy (ticks)
system.tol2bus.reqLayer0.utilization              2.5                       # Layer utilization (%)
system.tol2bus.respLayer0.occupancy              3000                       # Layer occupancy (ticks)
system.tol2bus.respLayer0.utilization             0.0                       # Layer utilization (%)
system.tol2bus.respLayer1.occupancy         575383500                       # Layer occupancy (ticks)
system.tol2bus.respLayer1.utilization             3.8                       # Layer utilization (%)

---------- End Simulation Statistics   ----------
