
---------- Begin Simulation Statistics ----------
sim_seconds                                  0.015267                       # Number of seconds simulated
sim_ticks                                 15267344125                       # Number of ticks simulated
final_tick                               2167962865750                       # Number of ticks from beginning of simulation (restored from checkpoints and never reset)
sim_freq                                 1000000000000                       # Frequency of simulated ticks
host_inst_rate                               18088781                       # Simulator instruction rate (inst/s)
host_op_rate                                 32870706                       # Simulator op (including micro ops) rate (op/s)
host_tick_rate                               56158267                       # Simulator tick rate (ticks/s)
host_mem_usage                                2332536                       # Number of bytes of host memory used
host_seconds                                   271.86                       # Real time elapsed on the host
sim_insts                                  4917666490                       # Number of instructions simulated
sim_ops                                    8936322057                       # Number of ops (including micro ops) simulated
system.voltage_domain.voltage                       1                       # Voltage in Volts
system.clk_domain.clock                          1000                       # Clock period in ticks
system.mem_ctrls.pwrStateResidencyTicks::UNDEFINED  15267344125                       # Cumulative time (in ticks) in various power states
system.mem_ctrls.bytes_read::cpu0.inst            384                       # Number of bytes read from this memory
system.mem_ctrls.bytes_read::cpu0.data        1068736                       # Number of bytes read from this memory
system.mem_ctrls.bytes_read::total            1069120                       # Number of bytes read from this memory
system.mem_ctrls.bytes_inst_read::cpu0.inst          384                       # Number of instructions bytes read from this memory
system.mem_ctrls.bytes_inst_read::total           384                       # Number of instructions bytes read from this memory
system.mem_ctrls.bytes_written::writebacks       991616                       # Number of bytes written to this memory
system.mem_ctrls.bytes_written::total          991616                       # Number of bytes written to this memory
system.mem_ctrls.num_reads::cpu0.inst               6                       # Number of read requests responded to by this memory
system.mem_ctrls.num_reads::cpu0.data           16699                       # Number of read requests responded to by this memory
system.mem_ctrls.num_reads::total               16705                       # Number of read requests responded to by this memory
system.mem_ctrls.num_writes::writebacks         15494                       # Number of write requests responded to by this memory
system.mem_ctrls.num_writes::total              15494                       # Number of write requests responded to by this memory
system.mem_ctrls.bw_read::cpu0.inst             25152                       # Total read bandwidth from this memory (bytes/s)
system.mem_ctrls.bw_read::cpu0.data          70001435                       # Total read bandwidth from this memory (bytes/s)
system.mem_ctrls.bw_read::total              70026587                       # Total read bandwidth from this memory (bytes/s)
system.mem_ctrls.bw_inst_read::cpu0.inst        25152                       # Instruction read bandwidth from this memory (bytes/s)
system.mem_ctrls.bw_inst_read::total            25152                       # Instruction read bandwidth from this memory (bytes/s)
system.mem_ctrls.bw_write::writebacks        64950131                       # Write bandwidth from this memory (bytes/s)
system.mem_ctrls.bw_write::total             64950131                       # Write bandwidth from this memory (bytes/s)
system.mem_ctrls.bw_total::writebacks        64950131                       # Total bandwidth to/from this memory (bytes/s)
system.mem_ctrls.bw_total::cpu0.inst            25152                       # Total bandwidth to/from this memory (bytes/s)
system.mem_ctrls.bw_total::cpu0.data         70001435                       # Total bandwidth to/from this memory (bytes/s)
system.mem_ctrls.bw_total::total            134976718                       # Total bandwidth to/from this memory (bytes/s)
system.mem_ctrls.readReqs                       16705                       # Number of read requests accepted
system.mem_ctrls.writeReqs                      15494                       # Number of write requests accepted
system.mem_ctrls.readBursts                     16705                       # Number of DRAM read bursts, including those serviced by the write queue
system.mem_ctrls.writeBursts                    15494                       # Number of DRAM write bursts, including those merged in the write queue
system.mem_ctrls.bytesReadDRAM                1069120                       # Total number of bytes read from DRAM
system.mem_ctrls.bytesReadWrQ                       0                       # Total number of bytes read from write queue
system.mem_ctrls.bytesWritten                  991936                       # Total number of bytes written to DRAM
system.mem_ctrls.bytesReadSys                 1069120                       # Total read bytes from the system interface side
system.mem_ctrls.bytesWrittenSys               991616                       # Total written bytes from the system interface side
system.mem_ctrls.servicedByWrQ                      0                       # Number of DRAM read bursts serviced by the write queue
system.mem_ctrls.mergedWrBursts                     0                       # Number of DRAM write bursts merged with an existing one
system.mem_ctrls.neitherReadNorWriteReqs            0                       # Number of requests that are neither read nor write
system.mem_ctrls.perBankRdBursts::0              1014                       # Per bank write bursts
system.mem_ctrls.perBankRdBursts::1              1058                       # Per bank write bursts
system.mem_ctrls.perBankRdBursts::2              1161                       # Per bank write bursts
system.mem_ctrls.perBankRdBursts::3              1106                       # Per bank write bursts
system.mem_ctrls.perBankRdBursts::4              1092                       # Per bank write bursts
system.mem_ctrls.perBankRdBursts::5              1150                       # Per bank write bursts
system.mem_ctrls.perBankRdBursts::6              1209                       # Per bank write bursts
system.mem_ctrls.perBankRdBursts::7              1292                       # Per bank write bursts
system.mem_ctrls.perBankRdBursts::8              1081                       # Per bank write bursts
system.mem_ctrls.perBankRdBursts::9              1094                       # Per bank write bursts
system.mem_ctrls.perBankRdBursts::10             1032                       # Per bank write bursts
system.mem_ctrls.perBankRdBursts::11              803                       # Per bank write bursts
system.mem_ctrls.perBankRdBursts::12              809                       # Per bank write bursts
system.mem_ctrls.perBankRdBursts::13              861                       # Per bank write bursts
system.mem_ctrls.perBankRdBursts::14              968                       # Per bank write bursts
system.mem_ctrls.perBankRdBursts::15              975                       # Per bank write bursts
system.mem_ctrls.perBankWrBursts::0               992                       # Per bank write bursts
system.mem_ctrls.perBankWrBursts::1              1000                       # Per bank write bursts
system.mem_ctrls.perBankWrBursts::2              1087                       # Per bank write bursts
system.mem_ctrls.perBankWrBursts::3               999                       # Per bank write bursts
system.mem_ctrls.perBankWrBursts::4               965                       # Per bank write bursts
system.mem_ctrls.perBankWrBursts::5              1040                       # Per bank write bursts
system.mem_ctrls.perBankWrBursts::6              1090                       # Per bank write bursts
system.mem_ctrls.perBankWrBursts::7              1095                       # Per bank write bursts
system.mem_ctrls.perBankWrBursts::8               909                       # Per bank write bursts
system.mem_ctrls.perBankWrBursts::9              1012                       # Per bank write bursts
system.mem_ctrls.perBankWrBursts::10             1000                       # Per bank write bursts
system.mem_ctrls.perBankWrBursts::11              799                       # Per bank write bursts
system.mem_ctrls.perBankWrBursts::12              779                       # Per bank write bursts
system.mem_ctrls.perBankWrBursts::13              833                       # Per bank write bursts
system.mem_ctrls.perBankWrBursts::14              938                       # Per bank write bursts
system.mem_ctrls.perBankWrBursts::15              961                       # Per bank write bursts
system.mem_ctrls.numRdRetry                         0                       # Number of times read queue was full causing retry
system.mem_ctrls.numWrRetry                         0                       # Number of times write queue was full causing retry
system.mem_ctrls.totGap                   15266239000                       # Total gap between requests
system.mem_ctrls.readPktSize::0                     0                       # Read request sizes (log2)
system.mem_ctrls.readPktSize::1                     0                       # Read request sizes (log2)
system.mem_ctrls.readPktSize::2                     0                       # Read request sizes (log2)
system.mem_ctrls.readPktSize::3                     0                       # Read request sizes (log2)
system.mem_ctrls.readPktSize::4                     0                       # Read request sizes (log2)
system.mem_ctrls.readPktSize::5                     0                       # Read request sizes (log2)
system.mem_ctrls.readPktSize::6                 16705                       # Read request sizes (log2)
system.mem_ctrls.writePktSize::0                    0                       # Write request sizes (log2)
system.mem_ctrls.writePktSize::1                    0                       # Write request sizes (log2)
system.mem_ctrls.writePktSize::2                    0                       # Write request sizes (log2)
system.mem_ctrls.writePktSize::3                    0                       # Write request sizes (log2)
system.mem_ctrls.writePktSize::4                    0                       # Write request sizes (log2)
system.mem_ctrls.writePktSize::5                    0                       # Write request sizes (log2)
system.mem_ctrls.writePktSize::6                15494                       # Write request sizes (log2)
system.mem_ctrls.rdQLenPdf::0                   16051                       # What read queue length does an incoming req see
system.mem_ctrls.rdQLenPdf::1                     651                       # What read queue length does an incoming req see
system.mem_ctrls.rdQLenPdf::2                       3                       # What read queue length does an incoming req see
system.mem_ctrls.rdQLenPdf::3                       0                       # What read queue length does an incoming req see
system.mem_ctrls.rdQLenPdf::4                       0                       # What read queue length does an incoming req see
system.mem_ctrls.rdQLenPdf::5                       0                       # What read queue length does an incoming req see
system.mem_ctrls.rdQLenPdf::6                       0                       # What read queue length does an incoming req see
system.mem_ctrls.rdQLenPdf::7                       0                       # What read queue length does an incoming req see
system.mem_ctrls.rdQLenPdf::8                       0                       # What read queue length does an incoming req see
system.mem_ctrls.rdQLenPdf::9                       0                       # What read queue length does an incoming req see
system.mem_ctrls.rdQLenPdf::10                      0                       # What read queue length does an incoming req see
system.mem_ctrls.rdQLenPdf::11                      0                       # What read queue length does an incoming req see
system.mem_ctrls.rdQLenPdf::12                      0                       # What read queue length does an incoming req see
system.mem_ctrls.rdQLenPdf::13                      0                       # What read queue length does an incoming req see
system.mem_ctrls.rdQLenPdf::14                      0                       # What read queue length does an incoming req see
system.mem_ctrls.rdQLenPdf::15                      0                       # What read queue length does an incoming req see
system.mem_ctrls.rdQLenPdf::16                      0                       # What read queue length does an incoming req see
system.mem_ctrls.rdQLenPdf::17                      0                       # What read queue length does an incoming req see
system.mem_ctrls.rdQLenPdf::18                      0                       # What read queue length does an incoming req see
system.mem_ctrls.rdQLenPdf::19                      0                       # What read queue length does an incoming req see
system.mem_ctrls.rdQLenPdf::20                      0                       # What read queue length does an incoming req see
system.mem_ctrls.rdQLenPdf::21                      0                       # What read queue length does an incoming req see
system.mem_ctrls.rdQLenPdf::22                      0                       # What read queue length does an incoming req see
system.mem_ctrls.rdQLenPdf::23                      0                       # What read queue length does an incoming req see
system.mem_ctrls.rdQLenPdf::24                      0                       # What read queue length does an incoming req see
system.mem_ctrls.rdQLenPdf::25                      0                       # What read queue length does an incoming req see
system.mem_ctrls.rdQLenPdf::26                      0                       # What read queue length does an incoming req see
system.mem_ctrls.rdQLenPdf::27                      0                       # What read queue length does an incoming req see
system.mem_ctrls.rdQLenPdf::28                      0                       # What read queue length does an incoming req see
system.mem_ctrls.rdQLenPdf::29                      0                       # What read queue length does an incoming req see
system.mem_ctrls.rdQLenPdf::30                      0                       # What read queue length does an incoming req see
system.mem_ctrls.rdQLenPdf::31                      0                       # What read queue length does an incoming req see
system.mem_ctrls.wrQLenPdf::0                       0                       # What write queue length does an incoming req see
system.mem_ctrls.wrQLenPdf::1                       0                       # What write queue length does an incoming req see
system.mem_ctrls.wrQLenPdf::2                       0                       # What write queue length does an incoming req see
system.mem_ctrls.wrQLenPdf::3                       0                       # What write queue length does an incoming req see
system.mem_ctrls.wrQLenPdf::4                       0                       # What write queue length does an incoming req see
system.mem_ctrls.wrQLenPdf::5                       0                       # What write queue length does an incoming req see
system.mem_ctrls.wrQLenPdf::6                       0                       # What write queue length does an incoming req see
system.mem_ctrls.wrQLenPdf::7                       0                       # What write queue length does an incoming req see
system.mem_ctrls.wrQLenPdf::8                       0                       # What write queue length does an incoming req see
system.mem_ctrls.wrQLenPdf::9                       0                       # What write queue length does an incoming req see
system.mem_ctrls.wrQLenPdf::10                      0                       # What write queue length does an incoming req see
system.mem_ctrls.wrQLenPdf::11                      0                       # What write queue length does an incoming req see
system.mem_ctrls.wrQLenPdf::12                      0                       # What write queue length does an incoming req see
system.mem_ctrls.wrQLenPdf::13                      0                       # What write queue length does an incoming req see
system.mem_ctrls.wrQLenPdf::14                      0                       # What write queue length does an incoming req see
system.mem_ctrls.wrQLenPdf::15                    624                       # What write queue length does an incoming req see
system.mem_ctrls.wrQLenPdf::16                    631                       # What write queue length does an incoming req see
system.mem_ctrls.wrQLenPdf::17                    888                       # What write queue length does an incoming req see
system.mem_ctrls.wrQLenPdf::18                    888                       # What write queue length does an incoming req see
system.mem_ctrls.wrQLenPdf::19                    891                       # What write queue length does an incoming req see
system.mem_ctrls.wrQLenPdf::20                    887                       # What write queue length does an incoming req see
system.mem_ctrls.wrQLenPdf::21                    888                       # What write queue length does an incoming req see
system.mem_ctrls.wrQLenPdf::22                    887                       # What write queue length does an incoming req see
system.mem_ctrls.wrQLenPdf::23                    887                       # What write queue length does an incoming req see
system.mem_ctrls.wrQLenPdf::24                    888                       # What write queue length does an incoming req see
system.mem_ctrls.wrQLenPdf::25                    888                       # What write queue length does an incoming req see
system.mem_ctrls.wrQLenPdf::26                    888                       # What write queue length does an incoming req see
system.mem_ctrls.wrQLenPdf::27                    890                       # What write queue length does an incoming req see
system.mem_ctrls.wrQLenPdf::28                    889                       # What write queue length does an incoming req see
system.mem_ctrls.wrQLenPdf::29                    888                       # What write queue length does an incoming req see
system.mem_ctrls.wrQLenPdf::30                    914                       # What write queue length does an incoming req see
system.mem_ctrls.wrQLenPdf::31                    889                       # What write queue length does an incoming req see
system.mem_ctrls.wrQLenPdf::32                    889                       # What write queue length does an incoming req see
system.mem_ctrls.wrQLenPdf::33                      0                       # What write queue length does an incoming req see
system.mem_ctrls.wrQLenPdf::34                      0                       # What write queue length does an incoming req see
system.mem_ctrls.wrQLenPdf::35                      0                       # What write queue length does an incoming req see
system.mem_ctrls.wrQLenPdf::36                      0                       # What write queue length does an incoming req see
system.mem_ctrls.wrQLenPdf::37                      0                       # What write queue length does an incoming req see
system.mem_ctrls.wrQLenPdf::38                      0                       # What write queue length does an incoming req see
system.mem_ctrls.wrQLenPdf::39                      0                       # What write queue length does an incoming req see
system.mem_ctrls.wrQLenPdf::40                      0                       # What write queue length does an incoming req see
system.mem_ctrls.wrQLenPdf::41                      0                       # What write queue length does an incoming req see
system.mem_ctrls.wrQLenPdf::42                      0                       # What write queue length does an incoming req see
system.mem_ctrls.wrQLenPdf::43                      0                       # What write queue length does an incoming req see
system.mem_ctrls.wrQLenPdf::44                      0                       # What write queue length does an incoming req see
system.mem_ctrls.wrQLenPdf::45                      0                       # What write queue length does an incoming req see
system.mem_ctrls.wrQLenPdf::46                      0                       # What write queue length does an incoming req see
system.mem_ctrls.wrQLenPdf::47                      0                       # What write queue length does an incoming req see
system.mem_ctrls.wrQLenPdf::48                      0                       # What write queue length does an incoming req see
system.mem_ctrls.wrQLenPdf::49                      0                       # What write queue length does an incoming req see
system.mem_ctrls.wrQLenPdf::50                      0                       # What write queue length does an incoming req see
system.mem_ctrls.wrQLenPdf::51                      0                       # What write queue length does an incoming req see
system.mem_ctrls.wrQLenPdf::52                      0                       # What write queue length does an incoming req see
system.mem_ctrls.wrQLenPdf::53                      0                       # What write queue length does an incoming req see
system.mem_ctrls.wrQLenPdf::54                      0                       # What write queue length does an incoming req see
system.mem_ctrls.wrQLenPdf::55                      0                       # What write queue length does an incoming req see
system.mem_ctrls.wrQLenPdf::56                      0                       # What write queue length does an incoming req see
system.mem_ctrls.wrQLenPdf::57                      0                       # What write queue length does an incoming req see
system.mem_ctrls.wrQLenPdf::58                      0                       # What write queue length does an incoming req see
system.mem_ctrls.wrQLenPdf::59                      0                       # What write queue length does an incoming req see
system.mem_ctrls.wrQLenPdf::60                      0                       # What write queue length does an incoming req see
system.mem_ctrls.wrQLenPdf::61                      0                       # What write queue length does an incoming req see
system.mem_ctrls.wrQLenPdf::62                      0                       # What write queue length does an incoming req see
system.mem_ctrls.wrQLenPdf::63                      0                       # What write queue length does an incoming req see
system.mem_ctrls.bytesPerActivate::samples        20571                       # Bytes accessed per row activation
system.mem_ctrls.bytesPerActivate::mean    100.204754                       # Bytes accessed per row activation
system.mem_ctrls.bytesPerActivate::gmean    88.054416                       # Bytes accessed per row activation
system.mem_ctrls.bytesPerActivate::stdev    63.672406                       # Bytes accessed per row activation
system.mem_ctrls.bytesPerActivate::64-127        13125     63.80%     63.80% # Bytes accessed per row activation
system.mem_ctrls.bytesPerActivate::128-191         5097     24.78%     88.58% # Bytes accessed per row activation
system.mem_ctrls.bytesPerActivate::192-255         1349      6.56%     95.14% # Bytes accessed per row activation
system.mem_ctrls.bytesPerActivate::256-319          577      2.80%     97.94% # Bytes accessed per row activation
system.mem_ctrls.bytesPerActivate::320-383          203      0.99%     98.93% # Bytes accessed per row activation
system.mem_ctrls.bytesPerActivate::384-447          112      0.54%     99.47% # Bytes accessed per row activation
system.mem_ctrls.bytesPerActivate::448-511           59      0.29%     99.76% # Bytes accessed per row activation
system.mem_ctrls.bytesPerActivate::512-575           23      0.11%     99.87% # Bytes accessed per row activation
system.mem_ctrls.bytesPerActivate::576-639           18      0.09%     99.96% # Bytes accessed per row activation
system.mem_ctrls.bytesPerActivate::640-703            3      0.01%     99.98% # Bytes accessed per row activation
system.mem_ctrls.bytesPerActivate::704-767            2      0.01%     99.99% # Bytes accessed per row activation
system.mem_ctrls.bytesPerActivate::768-831            3      0.01%    100.00% # Bytes accessed per row activation
system.mem_ctrls.bytesPerActivate::total        20571                       # Bytes accessed per row activation
system.mem_ctrls.rdPerTurnAround::samples          888                       # Reads before turning the bus around for writes
system.mem_ctrls.rdPerTurnAround::mean      18.815315                       # Reads before turning the bus around for writes
system.mem_ctrls.rdPerTurnAround::gmean     18.738778                       # Reads before turning the bus around for writes
system.mem_ctrls.rdPerTurnAround::stdev      1.711988                       # Reads before turning the bus around for writes
system.mem_ctrls.rdPerTurnAround::16               91     10.25%     10.25% # Reads before turning the bus around for writes
system.mem_ctrls.rdPerTurnAround::17               88      9.91%     20.16% # Reads before turning the bus around for writes
system.mem_ctrls.rdPerTurnAround::18              218     24.55%     44.71% # Reads before turning the bus around for writes
system.mem_ctrls.rdPerTurnAround::19              222     25.00%     69.71% # Reads before turning the bus around for writes
system.mem_ctrls.rdPerTurnAround::20              126     14.19%     83.90% # Reads before turning the bus around for writes
system.mem_ctrls.rdPerTurnAround::21               84      9.46%     93.36% # Reads before turning the bus around for writes
system.mem_ctrls.rdPerTurnAround::22               38      4.28%     97.64% # Reads before turning the bus around for writes
system.mem_ctrls.rdPerTurnAround::23               11      1.24%     98.87% # Reads before turning the bus around for writes
system.mem_ctrls.rdPerTurnAround::24                9      1.01%     99.89% # Reads before turning the bus around for writes
system.mem_ctrls.rdPerTurnAround::25                1      0.11%    100.00% # Reads before turning the bus around for writes
system.mem_ctrls.rdPerTurnAround::total           888                       # Reads before turning the bus around for writes
system.mem_ctrls.wrPerTurnAround::samples          888                       # Writes before turning the bus around for reads
system.mem_ctrls.wrPerTurnAround::mean      17.453829                       # Writes before turning the bus around for reads
system.mem_ctrls.wrPerTurnAround::gmean     17.427074                       # Writes before turning the bus around for reads
system.mem_ctrls.wrPerTurnAround::stdev      0.953311                       # Writes before turning the bus around for reads
system.mem_ctrls.wrPerTurnAround::16              257     28.94%     28.94% # Writes before turning the bus around for reads
system.mem_ctrls.wrPerTurnAround::17                7      0.79%     29.73% # Writes before turning the bus around for reads
system.mem_ctrls.wrPerTurnAround::18              588     66.22%     95.95% # Writes before turning the bus around for reads
system.mem_ctrls.wrPerTurnAround::19               36      4.05%    100.00% # Writes before turning the bus around for reads
system.mem_ctrls.wrPerTurnAround::total           888                       # Writes before turning the bus around for reads
system.mem_ctrls.totQLat                    446234250                       # Total ticks spent queuing
system.mem_ctrls.totMemAccLat               759453000                       # Total ticks spent from burst creation until serviced by the DRAM
system.mem_ctrls.totBusLat                   83525000                       # Total ticks spent in databus transfers
system.mem_ctrls.avgQLat                     26712.62                       # Average queueing delay per DRAM burst
system.mem_ctrls.avgBusLat                    5000.00                       # Average bus latency per DRAM burst
system.mem_ctrls.avgMemAccLat                45462.62                       # Average memory access latency per DRAM burst
system.mem_ctrls.avgRdBW                        70.03                       # Average DRAM read bandwidth in MiByte/s
system.mem_ctrls.avgWrBW                        64.97                       # Average achieved write bandwidth in MiByte/s
system.mem_ctrls.avgRdBWSys                     70.03                       # Average system read bandwidth in MiByte/s
system.mem_ctrls.avgWrBWSys                     64.95                       # Average system write bandwidth in MiByte/s
system.mem_ctrls.peakBW                      12800.00                       # Theoretical peak bandwidth in MiByte/s
system.mem_ctrls.busUtil                         1.05                       # Data bus utilization in percentage
system.mem_ctrls.busUtilRead                     0.55                       # Data bus utilization in percentage for reads
system.mem_ctrls.busUtilWrite                    0.51                       # Data bus utilization in percentage for writes
system.mem_ctrls.avgRdQLen                       1.09                       # Average read queue length when enqueuing
system.mem_ctrls.avgWrQLen                      24.83                       # Average write queue length when enqueuing
system.mem_ctrls.readRowHits                     6034                       # Number of row buffer hits during reads
system.mem_ctrls.writeRowHits                    5601                       # Number of row buffer hits during writes
system.mem_ctrls.readRowHitRate                 36.12                       # Row buffer hit rate for reads
system.mem_ctrls.writeRowHitRate                36.15                       # Row buffer hit rate for writes
system.mem_ctrls.avgGap                     474121.53                       # Average gap between requests
system.mem_ctrls.pageHitRate                    36.13                       # Row buffer hit rate, read and write combined
system.mem_ctrls_0.actEnergy                 79282560                       # Energy for activate commands per rank (pJ)
system.mem_ctrls_0.preEnergy                 42147270                       # Energy for precharge commands per rank (pJ)
system.mem_ctrls_0.readEnergy                64845480                       # Energy for read commands per rank (pJ)
system.mem_ctrls_0.writeEnergy               43158960                       # Energy for write commands per rank (pJ)
system.mem_ctrls_0.refreshEnergy         1223748240.000000                       # Energy for refresh commands per rank (pJ)
system.mem_ctrls_0.actBackEnergy            945914430                       # Energy for active background per rank (pJ)
system.mem_ctrls_0.preBackEnergy             32494080                       # Energy for precharge background per rank (pJ)
system.mem_ctrls_0.actPowerDownEnergy      4597197060                       # Energy for active power-down per rank (pJ)
system.mem_ctrls_0.prePowerDownEnergy      1103353440                       # Energy for precharge power-down per rank (pJ)
system.mem_ctrls_0.selfRefreshEnergy         66651660                       # Energy for self refresh per rank (pJ)
system.mem_ctrls_0.totalEnergy             8198990430                       # Total energy per rank (pJ)
system.mem_ctrls_0.averagePower            537.027944                       # Core power per rank (mW)
system.mem_ctrls_0.totalIdleTime          13106201875                       # Total Idle time Per DRAM Rank
system.mem_ctrls_0.memoryStateTime::IDLE     25486000                       # Time in different power states
system.mem_ctrls_0.memoryStateTime::REF     518008000                       # Time in different power states
system.mem_ctrls_0.memoryStateTime::SREF    153017750                       # Time in different power states
system.mem_ctrls_0.memoryStateTime::PRE_PDN   2873105500                       # Time in different power states
system.mem_ctrls_0.memoryStateTime::ACT    1616386000                       # Time in different power states
system.mem_ctrls_0.memoryStateTime::ACT_PDN  10081340875                       # Time in different power states
system.mem_ctrls_1.actEnergy                 67580100                       # Energy for activate commands per rank (pJ)
system.mem_ctrls_1.preEnergy                 35919675                       # Energy for precharge commands per rank (pJ)
system.mem_ctrls_1.readEnergy                54428220                       # Energy for read commands per rank (pJ)
system.mem_ctrls_1.writeEnergy               37745820                       # Energy for write commands per rank (pJ)
system.mem_ctrls_1.refreshEnergy         1228050720.000000                       # Energy for refresh commands per rank (pJ)
system.mem_ctrls_1.actBackEnergy            988088730                       # Energy for active background per rank (pJ)
system.mem_ctrls_1.preBackEnergy             33609600                       # Energy for precharge background per rank (pJ)
system.mem_ctrls_1.actPowerDownEnergy      4270699920                       # Energy for active power-down per rank (pJ)
system.mem_ctrls_1.prePowerDownEnergy      1298969760                       # Energy for precharge power-down per rank (pJ)
system.mem_ctrls_1.selfRefreshEnergy        105487140                       # Energy for self refresh per rank (pJ)
system.mem_ctrls_1.totalEnergy             8121057975                       # Total energy per rank (pJ)
system.mem_ctrls_1.averagePower            531.923425                       # Core power per rank (mW)
system.mem_ctrls_1.totalIdleTime          13011184375                       # Total Idle time Per DRAM Rank
system.mem_ctrls_1.memoryStateTime::IDLE     31164750                       # Time in different power states
system.mem_ctrls_1.memoryStateTime::REF     519948000                       # Time in different power states
system.mem_ctrls_1.memoryStateTime::SREF    263579250                       # Time in different power states
system.mem_ctrls_1.memoryStateTime::PRE_PDN   3382501375                       # Time in different power states
system.mem_ctrls_1.memoryStateTime::ACT    1704759000                       # Time in different power states
system.mem_ctrls_1.memoryStateTime::ACT_PDN   9365391750                       # Time in different power states
system.pwrStateResidencyTicks::UNDEFINED  15267344125                       # Cumulative time (in ticks) in various power states
system.cpu0.branchPred.lookups               13242691                       # Number of BP lookups
system.cpu0.branchPred.condPredicted         13242691                       # Number of conditional branches predicted
system.cpu0.branchPred.condIncorrect          1351667                       # Number of conditional branches incorrect
system.cpu0.branchPred.BTBLookups            11087377                       # Number of BTB lookups
system.cpu0.branchPred.BTBHits                      0                       # Number of BTB hits
system.cpu0.branchPred.BTBCorrect                   0                       # Number of correct BTB predictions (this stat may not work properly.
system.cpu0.branchPred.BTBHitPct             0.000000                       # BTB Hit Percentage
system.cpu0.branchPred.usedRAS                1083495                       # Number of times the RAS was used to get a target.
system.cpu0.branchPred.RASInCorrect            192818                       # Number of incorrect RAS predictions.
system.cpu0.branchPred.indirectLookups       11087377                       # Number of indirect predictor lookups.
system.cpu0.branchPred.indirectHits           2702094                       # Number of indirect target hits.
system.cpu0.branchPred.indirectMisses         8385283                       # Number of indirect misses.
system.cpu0.branchPredindirectMispredicted       881475                       # Number of mispredicted indirect branches.
system.cpu_voltage_domain.voltage                   1                       # Voltage in Volts
system.cpu_clk_domain.clock                       500                       # Clock period in ticks
system.cpu0.dtb.walker.pwrStateResidencyTicks::UNDEFINED  15267344125                       # Cumulative time (in ticks) in various power states
system.cpu0.dtb.rdAccesses                    7015474                       # TLB accesses on read requests
system.cpu0.dtb.wrAccesses                    2428443                       # TLB accesses on write requests
system.cpu0.dtb.rdMisses                        81487                       # TLB misses on read requests
system.cpu0.dtb.wrMisses                        14400                       # TLB misses on write requests
system.cpu0.apic_clk_domain.clock                8000                       # Clock period in ticks
system.cpu0.interrupts.pwrStateResidencyTicks::UNDEFINED  15267344125                       # Cumulative time (in ticks) in various power states
system.cpu0.itb.walker.pwrStateResidencyTicks::UNDEFINED  15267344125                       # Cumulative time (in ticks) in various power states
system.cpu0.itb.rdAccesses                          0                       # TLB accesses on read requests
system.cpu0.itb.wrAccesses                    6553362                       # TLB accesses on write requests
system.cpu0.itb.rdMisses                            0                       # TLB misses on read requests
system.cpu0.itb.wrMisses                         2084                       # TLB misses on write requests
system.cpu0.workload.numSyscalls                   18                       # Number of system calls
system.cpu0.pwrStateResidencyTicks::ON    15267344125                       # Cumulative time (in ticks) in various power states
system.cpu0.numCycles                        30534688                       # number of cpu cycles simulated
system.cpu0.numWorkItemsStarted                     0                       # number of work items this cpu started
system.cpu0.numWorkItemsCompleted                   0                       # number of work items this cpu completed
system.cpu0.fetch.icacheStallCycles           7379209                       # Number of cycles fetch is stalled on an Icache miss
system.cpu0.fetch.Insts                      56424061                       # Number of instructions fetch has processed
system.cpu0.fetch.Branches                   13242691                       # Number of branches that fetch encountered
system.cpu0.fetch.predictedBranches           3785589                       # Number of branches that fetch has predicted taken
system.cpu0.fetch.Cycles                     21789441                       # Number of cycles fetch has run and was not squashing or blocked
system.cpu0.fetch.SquashCycles                2705188                       # Number of cycles fetch has spent squashing
system.cpu0.fetch.TlbCycles                        17                       # Number of cycles fetch has spent waiting for tlb
system.cpu0.fetch.MiscStallCycles                 739                       # Number of cycles fetch has spent waiting on interrupts, or bad addresses, or out of MSHRs
system.cpu0.fetch.PendingTrapStallCycles        11947                       # Number of stall cycles due to pending traps
system.cpu0.fetch.PendingQuiesceStallCycles           32                       # Number of stall cycles due to pending quiesce instructions
system.cpu0.fetch.CacheLines                  6551278                       # Number of cache lines fetched
system.cpu0.fetch.IcacheSquashes               311910                       # Number of outstanding Icache misses that were squashed
system.cpu0.fetch.rateDist::samples          30533979                       # Number of instructions fetched each cycle (Total)
system.cpu0.fetch.rateDist::mean             4.027910                       # Number of instructions fetched each cycle (Total)
system.cpu0.fetch.rateDist::stdev            3.669339                       # Number of instructions fetched each cycle (Total)
system.cpu0.fetch.rateDist::underflows              0      0.00%      0.00% # Number of instructions fetched each cycle (Total)
system.cpu0.fetch.rateDist::0                12118865     39.69%     39.69% # Number of instructions fetched each cycle (Total)
system.cpu0.fetch.rateDist::1                  533108      1.75%     41.44% # Number of instructions fetched each cycle (Total)
system.cpu0.fetch.rateDist::2                  913312      2.99%     44.43% # Number of instructions fetched each cycle (Total)
system.cpu0.fetch.rateDist::3                 1345315      4.41%     48.83% # Number of instructions fetched each cycle (Total)
system.cpu0.fetch.rateDist::4                  609597      2.00%     50.83% # Number of instructions fetched each cycle (Total)
system.cpu0.fetch.rateDist::5                 1152404      3.77%     54.60% # Number of instructions fetched each cycle (Total)
system.cpu0.fetch.rateDist::6                  997447      3.27%     57.87% # Number of instructions fetched each cycle (Total)
system.cpu0.fetch.rateDist::7                  504108      1.65%     59.52% # Number of instructions fetched each cycle (Total)
system.cpu0.fetch.rateDist::8                12359823     40.48%    100.00% # Number of instructions fetched each cycle (Total)
system.cpu0.fetch.rateDist::overflows               0      0.00%    100.00% # Number of instructions fetched each cycle (Total)
system.cpu0.fetch.rateDist::min_value               0                       # Number of instructions fetched each cycle (Total)
system.cpu0.fetch.rateDist::max_value               8                       # Number of instructions fetched each cycle (Total)
system.cpu0.fetch.rateDist::total            30533979                       # Number of instructions fetched each cycle (Total)
system.cpu0.fetch.branchRate                 0.433693                       # Number of branch fetches per cycle
system.cpu0.fetch.rate                       1.847868                       # Number of inst fetches per cycle
system.cpu0.decode.IdleCycles                 5572482                       # Number of cycles decode is idle
system.cpu0.decode.BlockedCycles              8377878                       # Number of cycles decode is blocked
system.cpu0.decode.RunCycles                 13771548                       # Number of cycles decode is running
system.cpu0.decode.UnblockCycles              1459477                       # Number of cycles decode is unblocking
system.cpu0.decode.SquashCycles               1352594                       # Number of cycles decode is squashing
system.cpu0.decode.DecodedInsts             110318181                       # Number of instructions handled by decode
system.cpu0.rename.SquashCycles               1352594                       # Number of cycles rename is squashing
system.cpu0.rename.IdleCycles                 6640931                       # Number of cycles rename is idle
system.cpu0.rename.BlockCycles                6892221                       # Number of cycles rename is blocking
system.cpu0.rename.serializeStallCycles        229188                       # count of cycles rename stalled for serializing inst
system.cpu0.rename.RunCycles                 13952057                       # Number of cycles rename is running
system.cpu0.rename.UnblockCycles              1466988                       # Number of cycles rename is unblocking
system.cpu0.rename.RenamedInsts             103290270                       # Number of instructions processed by rename
system.cpu0.rename.ROBFullEvents                35475                       # Number of times rename has blocked due to ROB full
system.cpu0.rename.IQFullEvents                787682                       # Number of times rename has blocked due to IQ full
system.cpu0.rename.LQFullEvents                   165                       # Number of times rename has blocked due to LQ full
system.cpu0.rename.SQFullEvents                437422                       # Number of times rename has blocked due to SQ full
system.cpu0.rename.RenamedOperands          116057724                       # Number of destination operands rename has renamed
system.cpu0.rename.RenameLookups            256687228                       # Number of register rename lookups that rename has made
system.cpu0.rename.int_rename_lookups       140957174                       # Number of integer rename lookups
system.cpu0.rename.fp_rename_lookups         19148299                       # Number of floating rename lookups
system.cpu0.rename.CommittedMaps             49317095                       # Number of HB maps that are committed
system.cpu0.rename.UndoneMaps                66740671                       # Number of HB maps that are undone due to squashing
system.cpu0.rename.serializingInsts             30958                       # count of serializing insts renamed
system.cpu0.rename.tempSerializingInsts         33133                       # count of temporary serializing insts renamed
system.cpu0.rename.skidInsts                  3449207                       # count of insts added to the skid buffer
system.cpu0.memDep0.insertedLoads             9501924                       # Number of loads inserted to the mem dependence unit.
system.cpu0.memDep0.insertedStores            3345492                       # Number of stores inserted to the mem dependence unit.
system.cpu0.memDep0.conflictingLoads           166116                       # Number of conflicting loads.
system.cpu0.memDep0.conflictingStores          172800                       # Number of conflicting stores.
system.cpu0.iq.iqInstsAdded                  89868505                       # Number of instructions added to the IQ (excludes non-spec)
system.cpu0.iq.iqNonSpecInstsAdded             219444                       # Number of non-speculative instructions added to the IQ
system.cpu0.iq.iqInstsIssued                 71733432                       # Number of instructions issued
system.cpu0.iq.iqSquashedInstsIssued           669690                       # Number of squashed instructions issued
system.cpu0.iq.iqSquashedInstsExamined       47453731                       # Number of squashed instructions iterated over during squash; mainly for profiling
system.cpu0.iq.iqSquashedOperandsExamined     68746887                       # Number of squashed operands that are examined and possibly removed from graph
system.cpu0.iq.iqSquashedNonSpecRemoved        219366                       # Number of squashed non-spec instructions that were removed
system.cpu0.iq.issued_per_cycle::samples     30533979                       # Number of insts issued each cycle
system.cpu0.iq.issued_per_cycle::mean        2.349299                       # Number of insts issued each cycle
system.cpu0.iq.issued_per_cycle::stdev       2.593408                       # Number of insts issued each cycle
system.cpu0.iq.issued_per_cycle::underflows            0      0.00%      0.00% # Number of insts issued each cycle
system.cpu0.iq.issued_per_cycle::0           13120677     42.97%     42.97% # Number of insts issued each cycle
system.cpu0.iq.issued_per_cycle::1            2245380      7.35%     50.32% # Number of insts issued each cycle
system.cpu0.iq.issued_per_cycle::2            2813888      9.22%     59.54% # Number of insts issued each cycle
system.cpu0.iq.issued_per_cycle::3            2345979      7.68%     67.22% # Number of insts issued each cycle
system.cpu0.iq.issued_per_cycle::4            2376357      7.78%     75.01% # Number of insts issued each cycle
system.cpu0.iq.issued_per_cycle::5            2258741      7.40%     82.40% # Number of insts issued each cycle
system.cpu0.iq.issued_per_cycle::6            2660062      8.71%     91.12% # Number of insts issued each cycle
system.cpu0.iq.issued_per_cycle::7            1640326      5.37%     96.49% # Number of insts issued each cycle
system.cpu0.iq.issued_per_cycle::8            1072569      3.51%    100.00% # Number of insts issued each cycle
system.cpu0.iq.issued_per_cycle::overflows            0      0.00%    100.00% # Number of insts issued each cycle
system.cpu0.iq.issued_per_cycle::min_value            0                       # Number of insts issued each cycle
system.cpu0.iq.issued_per_cycle::max_value            8                       # Number of insts issued each cycle
system.cpu0.iq.issued_per_cycle::total       30533979                       # Number of insts issued each cycle
system.cpu0.iq.fu_full::No_OpClass                  0      0.00%      0.00% # attempts to use FU when none available
system.cpu0.iq.fu_full::IntAlu                1462202     92.93%     92.93% # attempts to use FU when none available
system.cpu0.iq.fu_full::IntMult                     0      0.00%     92.93% # attempts to use FU when none available
system.cpu0.iq.fu_full::IntDiv                      0      0.00%     92.93% # attempts to use FU when none available
system.cpu0.iq.fu_full::FloatAdd                82977      5.27%     98.20% # attempts to use FU when none available
system.cpu0.iq.fu_full::FloatCmp                    0      0.00%     98.20% # attempts to use FU when none available
system.cpu0.iq.fu_full::FloatCvt                    0      0.00%     98.20% # attempts to use FU when none available
system.cpu0.iq.fu_full::FloatMult                   0      0.00%     98.20% # attempts to use FU when none available
system.cpu0.iq.fu_full::FloatMultAcc                0      0.00%     98.20% # attempts to use FU when none available
system.cpu0.iq.fu_full::FloatDiv                    0      0.00%     98.20% # attempts to use FU when none available
system.cpu0.iq.fu_full::FloatMisc                   0      0.00%     98.20% # attempts to use FU when none available
system.cpu0.iq.fu_full::FloatSqrt                   0      0.00%     98.20% # attempts to use FU when none available
system.cpu0.iq.fu_full::SimdAdd                     0      0.00%     98.20% # attempts to use FU when none available
system.cpu0.iq.fu_full::SimdAddAcc                  0      0.00%     98.20% # attempts to use FU when none available
system.cpu0.iq.fu_full::SimdAlu                     0      0.00%     98.20% # attempts to use FU when none available
system.cpu0.iq.fu_full::SimdCmp                     0      0.00%     98.20% # attempts to use FU when none available
system.cpu0.iq.fu_full::SimdCvt                     0      0.00%     98.20% # attempts to use FU when none available
system.cpu0.iq.fu_full::SimdMisc                    0      0.00%     98.20% # attempts to use FU when none available
system.cpu0.iq.fu_full::SimdMult                    0      0.00%     98.20% # attempts to use FU when none available
system.cpu0.iq.fu_full::SimdMultAcc                 0      0.00%     98.20% # attempts to use FU when none available
system.cpu0.iq.fu_full::SimdShift                   0      0.00%     98.20% # attempts to use FU when none available
system.cpu0.iq.fu_full::SimdShiftAcc                0      0.00%     98.20% # attempts to use FU when none available
system.cpu0.iq.fu_full::SimdSqrt                    0      0.00%     98.20% # attempts to use FU when none available
system.cpu0.iq.fu_full::SimdFloatAdd                0      0.00%     98.20% # attempts to use FU when none available
system.cpu0.iq.fu_full::SimdFloatAlu                0      0.00%     98.20% # attempts to use FU when none available
system.cpu0.iq.fu_full::SimdFloatCmp                0      0.00%     98.20% # attempts to use FU when none available
system.cpu0.iq.fu_full::SimdFloatCvt                0      0.00%     98.20% # attempts to use FU when none available
system.cpu0.iq.fu_full::SimdFloatDiv                0      0.00%     98.20% # attempts to use FU when none available
system.cpu0.iq.fu_full::SimdFloatMisc               0      0.00%     98.20% # attempts to use FU when none available
system.cpu0.iq.fu_full::SimdFloatMult               0      0.00%     98.20% # attempts to use FU when none available
system.cpu0.iq.fu_full::SimdFloatMultAcc            0      0.00%     98.20% # attempts to use FU when none available
system.cpu0.iq.fu_full::SimdFloatSqrt               0      0.00%     98.20% # attempts to use FU when none available
system.cpu0.iq.fu_full::MemRead                  3912      0.25%     98.45% # attempts to use FU when none available
system.cpu0.iq.fu_full::MemWrite                 1538      0.10%     98.55% # attempts to use FU when none available
system.cpu0.iq.fu_full::FloatMemRead            22455      1.43%     99.98% # attempts to use FU when none available
system.cpu0.iq.fu_full::FloatMemWrite             359      0.02%    100.00% # attempts to use FU when none available
system.cpu0.iq.fu_full::IprAccess                   0      0.00%    100.00% # attempts to use FU when none available
system.cpu0.iq.fu_full::InstPrefetch                0      0.00%    100.00% # attempts to use FU when none available
system.cpu0.iq.FU_type_0::No_OpClass          1821514      2.54%      2.54% # Type of FU issued
system.cpu0.iq.FU_type_0::IntAlu             54564585     76.07%     78.61% # Type of FU issued
system.cpu0.iq.FU_type_0::IntMult                2635      0.00%     78.61% # Type of FU issued
system.cpu0.iq.FU_type_0::IntDiv                78591      0.11%     78.72% # Type of FU issued
system.cpu0.iq.FU_type_0::FloatAdd            5003302      6.97%     85.69% # Type of FU issued
system.cpu0.iq.FU_type_0::FloatCmp                  0      0.00%     85.69% # Type of FU issued
system.cpu0.iq.FU_type_0::FloatCvt                  0      0.00%     85.69% # Type of FU issued
system.cpu0.iq.FU_type_0::FloatMult                 0      0.00%     85.69% # Type of FU issued
system.cpu0.iq.FU_type_0::FloatMultAcc              0      0.00%     85.69% # Type of FU issued
system.cpu0.iq.FU_type_0::FloatDiv                  0      0.00%     85.69% # Type of FU issued
system.cpu0.iq.FU_type_0::FloatMisc                 0      0.00%     85.69% # Type of FU issued
system.cpu0.iq.FU_type_0::FloatSqrt                 0      0.00%     85.69% # Type of FU issued
system.cpu0.iq.FU_type_0::SimdAdd                   0      0.00%     85.69% # Type of FU issued
system.cpu0.iq.FU_type_0::SimdAddAcc                0      0.00%     85.69% # Type of FU issued
system.cpu0.iq.FU_type_0::SimdAlu                   0      0.00%     85.69% # Type of FU issued
system.cpu0.iq.FU_type_0::SimdCmp                   0      0.00%     85.69% # Type of FU issued
system.cpu0.iq.FU_type_0::SimdCvt                   0      0.00%     85.69% # Type of FU issued
system.cpu0.iq.FU_type_0::SimdMisc                  0      0.00%     85.69% # Type of FU issued
system.cpu0.iq.FU_type_0::SimdMult                  0      0.00%     85.69% # Type of FU issued
system.cpu0.iq.FU_type_0::SimdMultAcc               0      0.00%     85.69% # Type of FU issued
system.cpu0.iq.FU_type_0::SimdShift                 0      0.00%     85.69% # Type of FU issued
system.cpu0.iq.FU_type_0::SimdShiftAcc              0      0.00%     85.69% # Type of FU issued
system.cpu0.iq.FU_type_0::SimdSqrt                  0      0.00%     85.69% # Type of FU issued
system.cpu0.iq.FU_type_0::SimdFloatAdd              0      0.00%     85.69% # Type of FU issued
system.cpu0.iq.FU_type_0::SimdFloatAlu              0      0.00%     85.69% # Type of FU issued
system.cpu0.iq.FU_type_0::SimdFloatCmp              0      0.00%     85.69% # Type of FU issued
system.cpu0.iq.FU_type_0::SimdFloatCvt              0      0.00%     85.69% # Type of FU issued
system.cpu0.iq.FU_type_0::SimdFloatDiv              0      0.00%     85.69% # Type of FU issued
system.cpu0.iq.FU_type_0::SimdFloatMisc             0      0.00%     85.69% # Type of FU issued
system.cpu0.iq.FU_type_0::SimdFloatMult             0      0.00%     85.69% # Type of FU issued
system.cpu0.iq.FU_type_0::SimdFloatMultAcc            0      0.00%     85.69% # Type of FU issued
system.cpu0.iq.FU_type_0::SimdFloatSqrt             0      0.00%     85.69% # Type of FU issued
system.cpu0.iq.FU_type_0::MemRead             5227229      7.29%     92.98% # Type of FU issued
system.cpu0.iq.FU_type_0::MemWrite            2635237      3.67%     96.65% # Type of FU issued
system.cpu0.iq.FU_type_0::FloatMemRead        2399274      3.34%    100.00% # Type of FU issued
system.cpu0.iq.FU_type_0::FloatMemWrite          1065      0.00%    100.00% # Type of FU issued
system.cpu0.iq.FU_type_0::IprAccess                 0      0.00%    100.00% # Type of FU issued
system.cpu0.iq.FU_type_0::InstPrefetch              0      0.00%    100.00% # Type of FU issued
system.cpu0.iq.FU_type_0::total              71733432                       # Type of FU issued
system.cpu0.iq.rate                          2.349244                       # Inst issue rate
system.cpu0.iq.fu_busy_cnt                    1573443                       # FU busy when requested
system.cpu0.iq.fu_busy_rate                  0.021935                       # FU busy rate (busy events/executed inst)
system.cpu0.iq.int_inst_queue_reads         161036079                       # Number of integer instruction queue reads
system.cpu0.iq.int_inst_queue_writes        119793052                       # Number of integer instruction queue writes
system.cpu0.iq.int_inst_queue_wakeup_accesses     60781408                       # Number of integer instruction queue wakeup accesses
system.cpu0.iq.fp_inst_queue_reads           15207901                       # Number of floating instruction queue reads
system.cpu0.iq.fp_inst_queue_writes          17748883                       # Number of floating instruction queue writes
system.cpu0.iq.fp_inst_queue_wakeup_accesses      6783676                       # Number of floating instruction queue wakeup accesses
system.cpu0.iq.vec_inst_queue_reads                 0                       # Number of vector instruction queue reads
system.cpu0.iq.vec_inst_queue_writes                0                       # Number of vector instruction queue writes
system.cpu0.iq.vec_inst_queue_wakeup_accesses            0                       # Number of vector instruction queue wakeup accesses
system.cpu0.iq.int_alu_accesses              63872395                       # Number of integer alu accesses
system.cpu0.iq.fp_alu_accesses                7612966                       # Number of floating point alu accesses
system.cpu0.iq.vec_alu_accesses                     0                       # Number of vector alu accesses
system.cpu0.iew.lsq.thread0.forwLoads          247516                       # Number of loads that had data forwarded from stores
system.cpu0.iew.lsq.thread0.invAddrLoads            0                       # Number of loads ignored due to an invalid address
system.cpu0.iew.lsq.thread0.squashedLoads      5679918                       # Number of loads squashed
system.cpu0.iew.lsq.thread0.ignoredResponses         4002                       # Number of memory responses ignored because the instruction is squashed
system.cpu0.iew.lsq.thread0.memOrderViolation          298                       # Number of memory ordering violations
system.cpu0.iew.lsq.thread0.squashedStores      1603349                       # Number of stores squashed
system.cpu0.iew.lsq.thread0.invAddrSwpfs            0                       # Number of software prefetches ignored due to an invalid address
system.cpu0.iew.lsq.thread0.blockedLoads            0                       # Number of blocked loads due to partial load-store forwarding
system.cpu0.iew.lsq.thread0.rescheduledLoads         3651                       # Number of loads that were rescheduled
system.cpu0.iew.lsq.thread0.cacheBlocked            8                       # Number of times an access to memory failed due to the cache being blocked
system.cpu0.iew.iewIdleCycles                       0                       # Number of cycles IEW is idle
system.cpu0.iew.iewSquashCycles               1352594                       # Number of cycles IEW is squashing
system.cpu0.iew.iewBlockCycles                6168034                       # Number of cycles IEW is blocking
system.cpu0.iew.iewUnblockCycles                 9893                       # Number of cycles IEW is unblocking
system.cpu0.iew.iewDispatchedInsts           90087949                       # Number of instructions dispatched to IQ
system.cpu0.iew.iewDispSquashedInsts            49535                       # Number of squashed instructions skipped by dispatch
system.cpu0.iew.iewDispLoadInsts              9501924                       # Number of dispatched load instructions
system.cpu0.iew.iewDispStoreInsts             3345492                       # Number of dispatched store instructions
system.cpu0.iew.iewDispNonSpecInsts             89690                       # Number of dispatched non-speculative instructions
system.cpu0.iew.iewIQFullEvents                  4954                       # Number of times the IQ has become full, causing a stall
system.cpu0.iew.iewLSQFullEvents                 2857                       # Number of times the LSQ has become full, causing a stall
system.cpu0.iew.memOrderViolationEvents           298                       # Number of memory order violations
system.cpu0.iew.predictedTakenIncorrect        412607                       # Number of branches that were predicted taken incorrectly
system.cpu0.iew.predictedNotTakenIncorrect      1286736                       # Number of branches that were predicted not taken incorrectly
system.cpu0.iew.branchMispredicts             1699343                       # Number of branch mispredicts detected at execute
system.cpu0.iew.iewExecutedInsts             68717998                       # Number of executed instructions
system.cpu0.iew.iewExecLoadInsts              6980353                       # Number of load instructions executed
system.cpu0.iew.iewExecSquashedInsts          3015438                       # Number of squashed instructions skipped in execute
system.cpu0.iew.exec_swp                            0                       # number of swp insts executed
system.cpu0.iew.exec_nop                            0                       # number of nop insts executed
system.cpu0.iew.exec_refs                     9408259                       # number of memory reference insts executed
system.cpu0.iew.exec_branches                 6334354                       # Number of branches executed
system.cpu0.iew.exec_stores                   2427906                       # Number of stores executed
system.cpu0.iew.exec_rate                    2.250490                       # Inst execution rate
system.cpu0.iew.wb_sent                      68107683                       # cumulative count of insts sent to commit
system.cpu0.iew.wb_count                     67565084                       # cumulative count of insts written-back
system.cpu0.iew.wb_producers                 50006375                       # num instructions producing a value
system.cpu0.iew.wb_consumers                 89159323                       # num instructions consuming a value
system.cpu0.iew.wb_rate                      2.212732                       # insts written-back per cycle
system.cpu0.iew.wb_fanout                    0.560865                       # average fanout of values written-back
system.cpu0.commit.commitSquashedInsts       47453680                       # The number of squashed insts skipped by commit
system.cpu0.commit.commitNonSpecStalls             78                       # The number of times commit has been forced to stall to communicate backwards
system.cpu0.commit.branchMispredicts          1352425                       # The number of times a branch was mispredicted
system.cpu0.commit.committed_per_cycle::samples     23348940                       # Number of insts commited each cycle
system.cpu0.commit.committed_per_cycle::mean     1.825960                       # Number of insts commited each cycle
system.cpu0.commit.committed_per_cycle::stdev     2.429440                       # Number of insts commited each cycle
system.cpu0.commit.committed_per_cycle::underflows            0      0.00%      0.00% # Number of insts commited each cycle
system.cpu0.commit.committed_per_cycle::0     10617454     45.47%     45.47% # Number of insts commited each cycle
system.cpu0.commit.committed_per_cycle::1      3080291     13.19%     58.67% # Number of insts commited each cycle
system.cpu0.commit.committed_per_cycle::2      3494728     14.97%     73.63% # Number of insts commited each cycle
system.cpu0.commit.committed_per_cycle::3      1895385      8.12%     81.75% # Number of insts commited each cycle
system.cpu0.commit.committed_per_cycle::4       965072      4.13%     85.88% # Number of insts commited each cycle
system.cpu0.commit.committed_per_cycle::5       792915      3.40%     89.28% # Number of insts commited each cycle
system.cpu0.commit.committed_per_cycle::6       323782      1.39%     90.67% # Number of insts commited each cycle
system.cpu0.commit.committed_per_cycle::7       323725      1.39%     92.05% # Number of insts commited each cycle
system.cpu0.commit.committed_per_cycle::8      1855588      7.95%    100.00% # Number of insts commited each cycle
system.cpu0.commit.committed_per_cycle::overflows            0      0.00%    100.00% # Number of insts commited each cycle
system.cpu0.commit.committed_per_cycle::min_value            0                       # Number of insts commited each cycle
system.cpu0.commit.committed_per_cycle::max_value            8                       # Number of insts commited each cycle
system.cpu0.commit.committed_per_cycle::total     23348940                       # Number of insts commited each cycle
system.cpu0.commit.committedInsts            19354148                       # Number of instructions committed
system.cpu0.commit.committedOps              42634236                       # Number of ops (including micro ops) committed
system.cpu0.commit.swp_count                        0                       # Number of s/w prefetches committed
system.cpu0.commit.refs                       5564151                       # Number of memory references committed
system.cpu0.commit.loads                      3822007                       # Number of loads committed
system.cpu0.commit.membars                         40                       # Number of memory barriers committed
system.cpu0.commit.branches                   4453760                       # Number of branches committed
system.cpu0.commit.vec_insts                        0                       # Number of committed Vector instructions.
system.cpu0.commit.fp_insts                   3206803                       # Number of committed floating point instructions.
system.cpu0.commit.int_insts                 39898275                       # Number of committed integer instructions.
system.cpu0.commit.function_calls              387722                       # Number of function calls committed.
system.cpu0.commit.op_class_0::No_OpClass       723367      1.70%      1.70% # Class of committed instruction
system.cpu0.commit.op_class_0::IntAlu        33876908     79.46%     81.16% # Class of committed instruction
system.cpu0.commit.op_class_0::IntMult            224      0.00%     81.16% # Class of committed instruction
system.cpu0.commit.op_class_0::IntDiv           52346      0.12%     81.28% # Class of committed instruction
system.cpu0.commit.op_class_0::FloatAdd       2417240      5.67%     86.95% # Class of committed instruction
system.cpu0.commit.op_class_0::FloatCmp             0      0.00%     86.95% # Class of committed instruction
system.cpu0.commit.op_class_0::FloatCvt             0      0.00%     86.95% # Class of committed instruction
system.cpu0.commit.op_class_0::FloatMult            0      0.00%     86.95% # Class of committed instruction
system.cpu0.commit.op_class_0::FloatMultAcc            0      0.00%     86.95% # Class of committed instruction
system.cpu0.commit.op_class_0::FloatDiv             0      0.00%     86.95% # Class of committed instruction
system.cpu0.commit.op_class_0::FloatMisc            0      0.00%     86.95% # Class of committed instruction
system.cpu0.commit.op_class_0::FloatSqrt            0      0.00%     86.95% # Class of committed instruction
system.cpu0.commit.op_class_0::SimdAdd              0      0.00%     86.95% # Class of committed instruction
system.cpu0.commit.op_class_0::SimdAddAcc            0      0.00%     86.95% # Class of committed instruction
system.cpu0.commit.op_class_0::SimdAlu              0      0.00%     86.95% # Class of committed instruction
system.cpu0.commit.op_class_0::SimdCmp              0      0.00%     86.95% # Class of committed instruction
system.cpu0.commit.op_class_0::SimdCvt              0      0.00%     86.95% # Class of committed instruction
system.cpu0.commit.op_class_0::SimdMisc             0      0.00%     86.95% # Class of committed instruction
system.cpu0.commit.op_class_0::SimdMult             0      0.00%     86.95% # Class of committed instruction
system.cpu0.commit.op_class_0::SimdMultAcc            0      0.00%     86.95% # Class of committed instruction
system.cpu0.commit.op_class_0::SimdShift            0      0.00%     86.95% # Class of committed instruction
system.cpu0.commit.op_class_0::SimdShiftAcc            0      0.00%     86.95% # Class of committed instruction
system.cpu0.commit.op_class_0::SimdSqrt             0      0.00%     86.95% # Class of committed instruction
system.cpu0.commit.op_class_0::SimdFloatAdd            0      0.00%     86.95% # Class of committed instruction
system.cpu0.commit.op_class_0::SimdFloatAlu            0      0.00%     86.95% # Class of committed instruction
system.cpu0.commit.op_class_0::SimdFloatCmp            0      0.00%     86.95% # Class of committed instruction
system.cpu0.commit.op_class_0::SimdFloatCvt            0      0.00%     86.95% # Class of committed instruction
system.cpu0.commit.op_class_0::SimdFloatDiv            0      0.00%     86.95% # Class of committed instruction
system.cpu0.commit.op_class_0::SimdFloatMisc            0      0.00%     86.95% # Class of committed instruction
system.cpu0.commit.op_class_0::SimdFloatMult            0      0.00%     86.95% # Class of committed instruction
system.cpu0.commit.op_class_0::SimdFloatMultAcc            0      0.00%     86.95% # Class of committed instruction
system.cpu0.commit.op_class_0::SimdFloatSqrt            0      0.00%     86.95% # Class of committed instruction
system.cpu0.commit.op_class_0::MemRead        3044321      7.14%     94.09% # Class of committed instruction
system.cpu0.commit.op_class_0::MemWrite       1742144      4.09%     98.18% # Class of committed instruction
system.cpu0.commit.op_class_0::FloatMemRead       777686      1.82%    100.00% # Class of committed instruction
system.cpu0.commit.op_class_0::FloatMemWrite            0      0.00%    100.00% # Class of committed instruction
system.cpu0.commit.op_class_0::IprAccess            0      0.00%    100.00% # Class of committed instruction
system.cpu0.commit.op_class_0::InstPrefetch            0      0.00%    100.00% # Class of committed instruction
system.cpu0.commit.op_class_0::total         42634236                       # Class of committed instruction
system.cpu0.commit.bw_lim_events              1855588                       # number cycles where commit BW limit reached
system.cpu0.rob.rob_reads                   111581268                       # The number of ROB reads
system.cpu0.rob.rob_writes                  187493330                       # The number of ROB writes
system.cpu0.timesIdled                            120                       # Number of times that the entire CPU went into an idle state and unscheduled itself
system.cpu0.idleCycles                            709                       # Total number of cycles that the CPU has spent unscheduled due to idling
system.cpu0.committedInsts                   19354148                       # Number of Instructions Simulated
system.cpu0.committedOps                     42634236                       # Number of Ops (including micro ops) Simulated
system.cpu0.cpi                              1.577682                       # CPI: Cycles Per Instruction
system.cpu0.cpi_total                        1.577682                       # CPI: Total CPI of All Threads
system.cpu0.ipc                              0.633841                       # IPC: Instructions Per Cycle
system.cpu0.ipc_total                        0.633841                       # IPC: Total IPC of All Threads
system.cpu0.int_regfile_reads                88258344                       # number of integer regfile reads
system.cpu0.int_regfile_writes               51933044                       # number of integer regfile writes
system.cpu0.fp_regfile_reads                 10743638                       # number of floating regfile reads
system.cpu0.fp_regfile_writes                 6376058                       # number of floating regfile writes
system.cpu0.cc_regfile_reads                 36774134                       # number of cc regfile reads
system.cpu0.cc_regfile_writes                18106672                       # number of cc regfile writes
system.cpu0.misc_regfile_reads               22332972                       # number of misc regfile reads
system.cpu0.dcache.tags.pwrStateResidencyTicks::UNDEFINED  15267344125                       # Cumulative time (in ticks) in various power states
system.cpu0.dcache.tags.replacements            19824                       # number of replacements
system.cpu0.dcache.tags.tagsinuse                1024                       # Cycle average of tags in use
system.cpu0.dcache.tags.total_refs             524658                       # Total number of references to valid blocks.
system.cpu0.dcache.tags.sampled_refs            19824                       # Sample count of references to valid blocks.
system.cpu0.dcache.tags.avg_refs            26.465799                       # Average number of references to valid blocks.
system.cpu0.dcache.tags.warmup_cycle                0                       # Cycle when the warmup percentage was hit.
system.cpu0.dcache.tags.occ_blocks::cpu0.data         1024                       # Average occupied blocks per requestor
system.cpu0.dcache.tags.occ_percent::cpu0.data            1                       # Average percentage of cache occupancy
system.cpu0.dcache.tags.occ_percent::total            1                       # Average percentage of cache occupancy
system.cpu0.dcache.tags.occ_task_id_blocks::1024         1024                       # Occupied blocks per task id
system.cpu0.dcache.tags.age_task_id_blocks_1024::0           16                       # Occupied blocks per task id
system.cpu0.dcache.tags.age_task_id_blocks_1024::1          107                       # Occupied blocks per task id
system.cpu0.dcache.tags.age_task_id_blocks_1024::2          745                       # Occupied blocks per task id
system.cpu0.dcache.tags.age_task_id_blocks_1024::3           99                       # Occupied blocks per task id
system.cpu0.dcache.tags.age_task_id_blocks_1024::4           57                       # Occupied blocks per task id
system.cpu0.dcache.tags.occ_task_id_percent::1024            1                       # Percentage of cache occupancy per task id
system.cpu0.dcache.tags.tag_accesses         33743884                       # Number of tag accesses
system.cpu0.dcache.tags.data_accesses        33743884                       # Number of data accesses
system.cpu0.dcache.pwrStateResidencyTicks::UNDEFINED  15267344125                       # Cumulative time (in ticks) in various power states
system.cpu0.dcache.ReadReq_hits::cpu0.data      6667957                       # number of ReadReq hits
system.cpu0.dcache.ReadReq_hits::total        6667957                       # number of ReadReq hits
system.cpu0.dcache.WriteReq_hits::cpu0.data      1731354                       # number of WriteReq hits
system.cpu0.dcache.WriteReq_hits::total       1731354                       # number of WriteReq hits
system.cpu0.dcache.demand_hits::cpu0.data      8399311                       # number of demand (read+write) hits
system.cpu0.dcache.demand_hits::total         8399311                       # number of demand (read+write) hits
system.cpu0.dcache.overall_hits::cpu0.data      8399311                       # number of overall hits
system.cpu0.dcache.overall_hits::total        8399311                       # number of overall hits
system.cpu0.dcache.ReadReq_misses::cpu0.data        20750                       # number of ReadReq misses
system.cpu0.dcache.ReadReq_misses::total        20750                       # number of ReadReq misses
system.cpu0.dcache.WriteReq_misses::cpu0.data        10954                       # number of WriteReq misses
system.cpu0.dcache.WriteReq_misses::total        10954                       # number of WriteReq misses
system.cpu0.dcache.demand_misses::cpu0.data        31704                       # number of demand (read+write) misses
system.cpu0.dcache.demand_misses::total         31704                       # number of demand (read+write) misses
system.cpu0.dcache.overall_misses::cpu0.data        31704                       # number of overall misses
system.cpu0.dcache.overall_misses::total        31704                       # number of overall misses
system.cpu0.dcache.ReadReq_miss_latency::cpu0.data   1340999000                       # number of ReadReq miss cycles
system.cpu0.dcache.ReadReq_miss_latency::total   1340999000                       # number of ReadReq miss cycles
system.cpu0.dcache.WriteReq_miss_latency::cpu0.data    998215500                       # number of WriteReq miss cycles
system.cpu0.dcache.WriteReq_miss_latency::total    998215500                       # number of WriteReq miss cycles
system.cpu0.dcache.demand_miss_latency::cpu0.data   2339214500                       # number of demand (read+write) miss cycles
system.cpu0.dcache.demand_miss_latency::total   2339214500                       # number of demand (read+write) miss cycles
system.cpu0.dcache.overall_miss_latency::cpu0.data   2339214500                       # number of overall miss cycles
system.cpu0.dcache.overall_miss_latency::total   2339214500                       # number of overall miss cycles
system.cpu0.dcache.ReadReq_accesses::cpu0.data      6688707                       # number of ReadReq accesses(hits+misses)
system.cpu0.dcache.ReadReq_accesses::total      6688707                       # number of ReadReq accesses(hits+misses)
system.cpu0.dcache.WriteReq_accesses::cpu0.data      1742308                       # number of WriteReq accesses(hits+misses)
system.cpu0.dcache.WriteReq_accesses::total      1742308                       # number of WriteReq accesses(hits+misses)
system.cpu0.dcache.demand_accesses::cpu0.data      8431015                       # number of demand (read+write) accesses
system.cpu0.dcache.demand_accesses::total      8431015                       # number of demand (read+write) accesses
[...]
system.l2.ReadCleanReq_miss_rate::cpu0.inst     0.005742                       # miss rate for ReadCleanReq accesses
system.l2.ReadCleanReq_miss_rate::total      0.005742                       # miss rate for ReadCleanReq accesses
system.l2.ReadSharedReq_miss_rate::cpu0.data     0.701762                       # miss rate for ReadSharedReq accesses
system.l2.ReadSharedReq_miss_rate::total     0.701762                       # miss rate for ReadSharedReq accesses
system.l2.demand_miss_rate::cpu0.inst        0.005742                       # miss rate for demand accesses
system.l2.demand_miss_rate::cpu0.data        0.842363                       # miss rate for demand accesses
system.l2.demand_miss_rate::total            0.800470                       # miss rate for demand accesses
system.l2.overall_miss_rate::cpu0.inst       0.005742                       # miss rate for overall accesses
system.l2.overall_miss_rate::cpu0.data       0.842363                       # miss rate for overall accesses
system.l2.overall_miss_rate::total           0.800470                       # miss rate for overall accesses
system.l2.ReadExReq_avg_miss_latency::cpu0.data 91778.873798                       # average ReadExReq miss latency
system.l2.ReadExReq_avg_miss_latency::total 91778.873798                       # average ReadExReq miss latency
system.l2.ReadCleanReq_avg_miss_latency::cpu0.inst 93416.666667                       # average ReadCleanReq miss latency
system.l2.ReadCleanReq_avg_miss_latency::total 93416.666667                       # average ReadCleanReq miss latency
system.l2.ReadSharedReq_avg_miss_latency::cpu0.data 104150.408348                       # average ReadSharedReq miss latency
system.l2.ReadSharedReq_avg_miss_latency::total 104150.408348                       # average ReadSharedReq miss latency
system.l2.demand_avg_miss_latency::cpu0.inst 93416.666667                       # average overall miss latency
system.l2.demand_avg_miss_latency::cpu0.data 96677.405833                       # average overall miss latency
system.l2.demand_avg_miss_latency::total 96676.234660                       # average overall miss latency
system.l2.overall_avg_miss_latency::cpu0.inst 93416.666667                       # average overall miss latency
system.l2.overall_avg_miss_latency::cpu0.data 96677.405833                       # average overall miss latency
system.l2.overall_avg_miss_latency::total 96676.234660                       # average overall miss latency
system.l2.blocked_cycles::no_mshrs                  0                       # number of cycles access was blocked
system.l2.blocked_cycles::no_targets                0                       # number of cycles access was blocked
system.l2.blocked::no_mshrs                         0                       # number of cycles access was blocked
system.l2.blocked::no_targets                       0                       # number of cycles access was blocked
system.l2.avg_blocked_cycles::no_mshrs            nan                       # average number of cycles each access was blocked
system.l2.avg_blocked_cycles::no_targets          nan                       # average number of cycles each access was blocked
system.l2.writebacks::writebacks                15494                       # number of writebacks
system.l2.writebacks::total                     15494                       # number of writebacks
system.l2.ReadExReq_mshr_misses::cpu0.data        10087                       # number of ReadExReq MSHR misses
system.l2.ReadExReq_mshr_misses::total          10087                       # number of ReadExReq MSHR misses
system.l2.ReadCleanReq_mshr_misses::cpu0.inst            6                       # number of ReadCleanReq MSHR misses
system.l2.ReadCleanReq_mshr_misses::total            6                       # number of ReadCleanReq MSHR misses
system.l2.ReadSharedReq_mshr_misses::cpu0.data         6612                       # number of ReadSharedReq MSHR misses
system.l2.ReadSharedReq_mshr_misses::total         6612                       # number of ReadSharedReq MSHR misses
system.l2.demand_mshr_misses::cpu0.inst             6                       # number of demand (read+write) MSHR misses
system.l2.demand_mshr_misses::cpu0.data         16699                       # number of demand (read+write) MSHR misses
system.l2.demand_mshr_misses::total             16705                       # number of demand (read+write) MSHR misses
system.l2.overall_mshr_misses::cpu0.inst            6                       # number of overall MSHR misses
system.l2.overall_mshr_misses::cpu0.data        16699                       # number of overall MSHR misses
system.l2.overall_mshr_misses::total            16705                       # number of overall MSHR misses
system.l2.ReadExReq_mshr_miss_latency::cpu0.data    824903500                       # number of ReadExReq MSHR miss cycles
system.l2.ReadExReq_mshr_miss_latency::total    824903500                       # number of ReadExReq MSHR miss cycles
system.l2.ReadCleanReq_mshr_miss_latency::cpu0.inst       500500                       # number of ReadCleanReq MSHR miss cycles
system.l2.ReadCleanReq_mshr_miss_latency::total       500500                       # number of ReadCleanReq MSHR miss cycles
system.l2.ReadSharedReq_mshr_miss_latency::cpu0.data    622522500                       # number of ReadSharedReq MSHR miss cycles
system.l2.ReadSharedReq_mshr_miss_latency::total    622522500                       # number of ReadSharedReq MSHR miss cycles
system.l2.demand_mshr_miss_latency::cpu0.inst       500500                       # number of demand (read+write) MSHR miss cycles
system.l2.demand_mshr_miss_latency::cpu0.data   1447426000                       # number of demand (read+write) MSHR miss cycles
system.l2.demand_mshr_miss_latency::total   1447926500                       # number of demand (read+write) MSHR miss cycles
system.l2.overall_mshr_miss_latency::cpu0.inst       500500                       # number of overall MSHR miss cycles
system.l2.overall_mshr_miss_latency::cpu0.data   1447426000                       # number of overall MSHR miss cycles
system.l2.overall_mshr_miss_latency::total   1447926500                       # number of overall MSHR miss cycles
system.l2.ReadExReq_mshr_miss_rate::cpu0.data     0.969717                       # mshr miss rate for ReadExReq accesses
system.l2.ReadExReq_mshr_miss_rate::total     0.969717                       # mshr miss rate for ReadExReq accesses
system.l2.ReadCleanReq_mshr_miss_rate::cpu0.inst     0.005742                       # mshr miss rate for ReadCleanReq accesses
system.l2.ReadCleanReq_mshr_miss_rate::total     0.005742                       # mshr miss rate for ReadCleanReq accesses
system.l2.ReadSharedReq_mshr_miss_rate::cpu0.data     0.701762                       # mshr miss rate for ReadSharedReq accesses
system.l2.ReadSharedReq_mshr_miss_rate::total     0.701762                       # mshr miss rate for ReadSharedReq accesses
system.l2.demand_mshr_miss_rate::cpu0.inst     0.005742                       # mshr miss rate for demand accesses
system.l2.demand_mshr_miss_rate::cpu0.data     0.842363                       # mshr miss rate for demand accesses
system.l2.demand_mshr_miss_rate::total       0.800470                       # mshr miss rate for demand accesses
system.l2.overall_mshr_miss_rate::cpu0.inst     0.005742                       # mshr miss rate for overall accesses
system.l2.overall_mshr_miss_rate::cpu0.data     0.842363                       # mshr miss rate for overall accesses
system.l2.overall_mshr_miss_rate::total      0.800470                       # mshr miss rate for overall accesses
system.l2.ReadExReq_avg_mshr_miss_latency::cpu0.data 81778.873798                       # average ReadExReq mshr miss latency
system.l2.ReadExReq_avg_mshr_miss_latency::total 81778.873798                       # average ReadExReq mshr miss latency
system.l2.ReadCleanReq_avg_mshr_miss_latency::cpu0.inst 83416.666667                       # average ReadCleanReq mshr miss latency
system.l2.ReadCleanReq_avg_mshr_miss_latency::total 83416.666667                       # average ReadCleanReq mshr miss latency
system.l2.ReadSharedReq_avg_mshr_miss_latency::cpu0.data 94150.408348                       # average ReadSharedReq mshr miss latency
system.l2.ReadSharedReq_avg_mshr_miss_latency::total 94150.408348                       # average ReadSharedReq mshr miss latency
system.l2.demand_avg_mshr_miss_latency::cpu0.inst 83416.666667                       # average overall mshr miss latency
system.l2.demand_avg_mshr_miss_latency::cpu0.data 86677.405833                       # average overall mshr miss latency
system.l2.demand_avg_mshr_miss_latency::total 86676.234660                       # average overall mshr miss latency
system.l2.overall_avg_mshr_miss_latency::cpu0.inst 83416.666667                       # average overall mshr miss latency
system.l2.overall_avg_mshr_miss_latency::cpu0.data 86677.405833                       # average overall mshr miss latency
system.l2.overall_avg_mshr_miss_latency::total 86676.234660                       # average overall mshr miss latency
system.membus.snoop_filter.tot_requests         33257                       # Total number of requests made to the snoop filter.
system.membus.snoop_filter.hit_single_requests        16552                       # Number of requests hitting in the snoop filter with a single holder of the requested data.
system.membus.snoop_filter.hit_multi_requests            0                       # Number of requests hitting in the snoop filter with multiple (>1) holders of the requested data.
system.membus.snoop_filter.tot_snoops               0                       # Total number of snoops made to the snoop filter.
system.membus.snoop_filter.hit_single_snoops            0                       # Number of snoops hitting in the snoop filter with a single holder of the requested data.
system.membus.snoop_filter.hit_multi_snoops            0                       # Number of snoops hitting in the snoop filter with multiple (>1) holders of the requested data.
system.membus.pwrStateResidencyTicks::UNDEFINED  15267344125                       # Cumulative time (in ticks) in various power states
system.membus.trans_dist::ReadResp               6618                       # Transaction distribution
system.membus.trans_dist::WritebackDirty        15494                       # Transaction distribution
system.membus.trans_dist::CleanEvict             1058                       # Transaction distribution
system.membus.trans_dist::ReadExReq             10087                       # Transaction distribution
system.membus.trans_dist::ReadExResp            10087                       # Transaction distribution
system.membus.trans_dist::ReadSharedReq          6618                       # Transaction distribution
system.membus.pkt_count_system.l2.mem_side::system.mem_ctrls.port        49962                       # Packet count per connected master and slave (bytes)
system.membus.pkt_count_system.l2.mem_side::total        49962                       # Packet count per connected master and slave (bytes)
system.membus.pkt_count::total                  49962                       # Packet count per connected master and slave (bytes)
system.membus.pkt_size_system.l2.mem_side::system.mem_ctrls.port      2060736                       # Cumulative packet size per connected master and slave (bytes)
system.membus.pkt_size_system.l2.mem_side::total      2060736                       # Cumulative packet size per connected master and slave (bytes)
system.membus.pkt_size::total                 2060736                       # Cumulative packet size per connected master and slave (bytes)
system.membus.snoops                                0                       # Total snoops (count)
system.membus.snoopTraffic                          0                       # Total snoop traffic (bytes)
system.membus.snoop_fanout::samples             16705                       # Request fanout histogram
system.membus.snoop_fanout::mean                    0                       # Request fanout histogram
system.membus.snoop_fanout::stdev                   0                       # Request fanout histogram
system.membus.snoop_fanout::underflows              0      0.00%      0.00% # Request fanout histogram
system.membus.snoop_fanout::0                   16705    100.00%    100.00% # Request fanout histogram
system.membus.snoop_fanout::1                       0      0.00%    100.00% # Request fanout histogram
system.membus.snoop_fanout::overflows               0      0.00%    100.00% # Request fanout histogram
system.membus.snoop_fanout::min_value               0                       # Request fanout histogram
system.membus.snoop_fanout::max_value               0                       # Request fanout histogram
system.membus.snoop_fanout::total               16705                       # Request fanout histogram
system.membus.reqLayer8.occupancy            99165500                       # Layer occupancy (ticks)
system.membus.reqLayer8.utilization               0.6                       # Layer utilization (%)
system.membus.respLayer1.occupancy           90631500                       # Layer occupancy (ticks)
system.membus.respLayer1.utilization              0.6                       # Layer utilization (%)
system.tol2bus.snoop_filter.tot_requests        41774                       # Total number of requests made to the snoop filter.
system.tol2bus.snoop_filter.hit_single_requests        20869                       # Number of requests hitting in the snoop filter with a single holder of the requested data.
system.tol2bus.snoop_filter.hit_multi_requests           70                       # Number of requests hitting in the snoop filter with multiple (>1) holders of the requested data.
system.tol2bus.snoop_filter.tot_snoops            157                       # Total number of snoops made to the snoop filter.
system.tol2bus.snoop_filter.hit_single_snoops          157                       # Number of snoops hitting in the snoop filter with a single holder of the requested data.
system.tol2bus.snoop_filter.hit_multi_snoops            0                       # Number of snoops hitting in the snoop filter with multiple (>1) holders of the requested data.
system.tol2bus.pwrStateResidencyTicks::UNDEFINED  15267344125                       # Cumulative time (in ticks) in various power states
system.tol2bus.trans_dist::ReadResp             10485                       # Transaction distribution
system.tol2bus.trans_dist::WritebackDirty        33542                       # Transaction distribution
system.tol2bus.trans_dist::WritebackClean         1045                       # Transaction distribution
system.tol2bus.trans_dist::CleanEvict            2990                       # Transaction distribution
system.tol2bus.trans_dist::UpgradeReq              18                       # Transaction distribution
system.tol2bus.trans_dist::UpgradeResp             18                       # Transaction distribution
system.tol2bus.trans_dist::ReadExReq            10402                       # Transaction distribution
system.tol2bus.trans_dist::ReadExResp           10402                       # Transaction distribution
system.tol2bus.trans_dist::ReadCleanReq          1063                       # Transaction distribution
system.tol2bus.trans_dist::ReadSharedReq         9422                       # Transaction distribution
system.tol2bus.pkt_count_system.cpu0.icache.mem_side::system.l2.cpu_side         3153                       # Packet count per connected master and slave (bytes)
system.tol2bus.pkt_count_system.cpu0.dcache.mem_side::system.l2.cpu_side        59508                       # Packet count per connected master and slave (bytes)
system.tol2bus.pkt_count::total                 62661                       # Packet count per connected master and slave (bytes)
system.tol2bus.pkt_size_system.cpu0.icache.mem_side::system.l2.cpu_side       133760                       # Cumulative packet size per connected master and slave (bytes)
system.tol2bus.pkt_size_system.cpu0.dcache.mem_side::system.l2.cpu_side      2423808                       # Cumulative packet size per connected master and slave (bytes)
system.tol2bus.pkt_size::total                2557568                       # Cumulative packet size per connected master and slave (bytes)
system.tol2bus.snoops                           16726                       # Total snoops (count)
system.tol2bus.snoopTraffic                    992768                       # Total snoop traffic (bytes)
system.tol2bus.snoop_fanout::samples            37613                       # Request fanout histogram
system.tol2bus.snoop_fanout::mean            0.006035                       # Request fanout histogram
system.tol2bus.snoop_fanout::stdev           0.077452                       # Request fanout histogram
system.tol2bus.snoop_fanout::underflows             0      0.00%      0.00% # Request fanout histogram
system.tol2bus.snoop_fanout::0                  37386     99.40%     99.40% # Request fanout histogram
system.tol2bus.snoop_fanout::1                    227      0.60%    100.00% # Request fanout histogram
system.tol2bus.snoop_fanout::2                      0      0.00%    100.00% # Request fanout histogram
system.tol2bus.snoop_fanout::3                      0      0.00%    100.00% # Request fanout histogram
system.tol2bus.snoop_fanout::4                      0      0.00%    100.00% # Request fanout histogram
system.tol2bus.snoop_fanout::5                      0      0.00%    100.00% # Request fanout histogram
system.tol2bus.snoop_fanout::6                      0      0.00%    100.00% # Request fanout histogram
system.tol2bus.snoop_fanout::7                      0      0.00%    100.00% # Request fanout histogram
system.tol2bus.snoop_fanout::8                      0      0.00%    100.00% # Request fanout histogram
system.tol2bus.snoop_fanout::9                      0      0.00%    100.00% # Request fanout histogram
system.tol2bus.snoop_fanout::10                     0      0.00%    100.00% # Request fanout histogram
system.tol2bus.snoop_fanout::11                     0      0.00%    100.00% # Request fanout histogram
system.tol2bus.snoop_fanout::12                     0      0.00%    100.00% # Request fanout histogram
system.tol2bus.snoop_fanout::13                     0      0.00%    100.00% # Request fanout histogram
system.tol2bus.snoop_fanout::14                     0      0.00%    100.00% # Request fanout histogram
system.tol2bus.snoop_fanout::15                     0      0.00%    100.00% # Request fanout histogram
system.tol2bus.snoop_fanout::16                     0      0.00%    100.00% # Request fanout histogram
system.tol2bus.snoop_fanout::overflows              0      0.00%    100.00% # Request fanout histogram
system.tol2bus.snoop_fanout::min_value              0                       # Request fanout histogram
system.tol2bus.snoop_fanout::max_value              1                       # Request fanout histogram
system.tol2bus.snoop_fanout::total              37613                       # Request fanout histogram
system.tol2bus.reqLayer0.occupancy           39980000                       # Layer occupancy (ticks)
system.tol2bus.reqLayer0.utilization              0.3                       # Layer utilization (%)
system.tol2bus.respLayer0.occupancy           1594500                       # Layer occupancy (ticks)
system.tol2bus.respLayer0.utilization             0.0                       # Layer utilization (%)
system.tol2bus.respLayer1.occupancy          29745000                       # Layer occupancy (ticks)
system.tol2bus.respLayer1.utilization             0.2                       # Layer utilization (%)

---------- End Simulation Statistics   ----------
