
---------- Begin Simulation Statistics ----------
sim_seconds                                  0.015267                       # Number of seconds simulated
sim_ticks                                 15267344125                       # Number of ticks simulated
final_tick                               4977154184750                       # Number of ticks from beginning of simulation (restored from checkpoints and never reset)
sim_freq                                 1000000000000                       # Frequency of simulated ticks
host_inst_rate                              107005477                       # Simulator instruction rate (inst/s)
host_op_rate                                198917386                       # Simulator op (including micro ops) rate (op/s)
host_tick_rate                              280735550                       # Simulator tick rate (ticks/s)
host_mem_usage                                2332680                       # Number of bytes of host memory used
host_seconds                                    54.38                       # Real time elapsed on the host
sim_insts                                  5819316205                       # Number of instructions simulated
sim_ops                                   10817795383                       # Number of ops (including micro ops) simulated
system.voltage_domain.voltage                       1                       # Voltage in Volts
system.clk_domain.clock                          1000                       # Clock period in ticks
system.mem_ctrls.pwrStateResidencyTicks::UNDEFINED  15267344125                       # Cumulative time (in ticks) in various power states
system.mem_ctrls.bytes_read::cpu0.data       11628288                       # Number of bytes read from this memory
system.mem_ctrls.bytes_read::total           11628288                       # Number of bytes read from this memory
system.mem_ctrls.bytes_written::writebacks        27008                       # Number of bytes written to this memory
system.mem_ctrls.bytes_written::total           27008                       # Number of bytes written to this memory
system.mem_ctrls.num_reads::cpu0.data          181692                       # Number of read requests responded to by this memory
system.mem_ctrls.num_reads::total              181692                       # Number of read requests responded to by this memory
system.mem_ctrls.num_writes::writebacks           422                       # Number of write requests responded to by this memory
system.mem_ctrls.num_writes::total                422                       # Number of write requests responded to by this memory
system.mem_ctrls.bw_read::cpu0.data         761644455                       # Total read bandwidth from this memory (bytes/s)
system.mem_ctrls.bw_read::total             761644455                       # Total read bandwidth from this memory (bytes/s)
system.mem_ctrls.bw_write::writebacks         1769004                       # Write bandwidth from this memory (bytes/s)
system.mem_ctrls.bw_write::total              1769004                       # Write bandwidth from this memory (bytes/s)
system.mem_ctrls.bw_total::writebacks         1769004                       # Total bandwidth to/from this memory (bytes/s)
system.mem_ctrls.bw_total::cpu0.data        761644455                       # Total bandwidth to/from this memory (bytes/s)
system.mem_ctrls.bw_total::total            763413460                       # Total bandwidth to/from this memory (bytes/s)
system.mem_ctrls.readReqs                      181694                       # Number of read requests accepted
system.mem_ctrls.writeReqs                        422                       # Number of write requests accepted
system.mem_ctrls.readBursts                    181694                       # Number of DRAM read bursts, including those serviced by the write queue
system.mem_ctrls.writeBursts                      422                       # Number of DRAM write bursts, including those merged in the write queue
system.mem_ctrls.bytesReadDRAM               11624896                       # Total number of bytes read from DRAM
system.mem_ctrls.bytesReadWrQ                    3520                       # Total number of bytes read from write queue
system.mem_ctrls.bytesWritten                   26624                       # Total number of bytes written to DRAM
system.mem_ctrls.bytesReadSys                11628416                       # Total read bytes from the system interface side
system.mem_ctrls.bytesWrittenSys                27008                       # Total written bytes from the system interface side
system.mem_ctrls.servicedByWrQ                     55                       # Number of DRAM read bursts serviced by the write queue
system.mem_ctrls.mergedWrBursts                     0                       # Number of DRAM write bursts merged with an existing one
system.mem_ctrls.neitherReadNorWriteReqs            0                       # Number of requests that are neither read nor write
system.mem_ctrls.perBankRdBursts::0             11382                       # Per bank write bursts
system.mem_ctrls.perBankRdBursts::1             11353                       # Per bank write bursts
system.mem_ctrls.perBankRdBursts::2             11427                       # Per bank write bursts
system.mem_ctrls.perBankRdBursts::3             11545                       # Per bank write bursts
system.mem_ctrls.perBankRdBursts::4             11011                       # Per bank write bursts
system.mem_ctrls.perBankRdBursts::5             11309                       # Per bank write bursts
system.mem_ctrls.perBankRdBursts::6             11111                       # Per bank write bursts
system.mem_ctrls.perBankRdBursts::7             11050                       # Per bank write bursts
system.mem_ctrls.perBankRdBursts::8             11152                       # Per bank write bursts
system.mem_ctrls.perBankRdBursts::9             11061                       # Per bank write bursts
system.mem_ctrls.perBankRdBursts::10            11062                       # Per bank write bursts
system.mem_ctrls.perBankRdBursts::11            11242                       # Per bank write bursts
system.mem_ctrls.perBankRdBursts::12            11732                       # Per bank write bursts
system.mem_ctrls.perBankRdBursts::13            11959                       # Per bank write bursts
system.mem_ctrls.perBankRdBursts::14            11540                       # Per bank write bursts
system.mem_ctrls.perBankRdBursts::15            11703                       # Per bank write bursts
system.mem_ctrls.perBankWrBursts::0                 8                       # Per bank write bursts
system.mem_ctrls.perBankWrBursts::1                79                       # Per bank write bursts
system.mem_ctrls.perBankWrBursts::2               127                       # Per bank write bursts
system.mem_ctrls.perBankWrBursts::3                97                       # Per bank write bursts
system.mem_ctrls.perBankWrBursts::4                 0                       # Per bank write bursts
system.mem_ctrls.perBankWrBursts::5                 0                       # Per bank write bursts
system.mem_ctrls.perBankWrBursts::6                13                       # Per bank write bursts
system.mem_ctrls.perBankWrBursts::7                 0                       # Per bank write bursts
system.mem_ctrls.perBankWrBursts::8                 0                       # Per bank write bursts
system.mem_ctrls.perBankWrBursts::9                 0                       # Per bank write bursts
system.mem_ctrls.perBankWrBursts::10                0                       # Per bank write bursts
system.mem_ctrls.perBankWrBursts::11                0                       # Per bank write bursts
system.mem_ctrls.perBankWrBursts::12               92                       # Per bank write bursts
system.mem_ctrls.perBankWrBursts::13                0                       # Per bank write bursts
system.mem_ctrls.perBankWrBursts::14                0                       # Per bank write bursts
system.mem_ctrls.perBankWrBursts::15                0                       # Per bank write bursts
system.mem_ctrls.numRdRetry                         0                       # Number of times read queue was full causing retry
system.mem_ctrls.numWrRetry                         0                       # Number of times write queue was full causing retry
system.mem_ctrls.totGap                   15267386500                       # Total gap between requests
system.mem_ctrls.readPktSize::0                     0                       # Read request sizes (log2)
system.mem_ctrls.readPktSize::1                     0                       # Read request sizes (log2)
system.mem_ctrls.readPktSize::2                     0                       # Read request sizes (log2)
system.mem_ctrls.readPktSize::3                     0                       # Read request sizes (log2)
system.mem_ctrls.readPktSize::4                     0                       # Read request sizes (log2)
system.mem_ctrls.readPktSize::5                     0                       # Read request sizes (log2)
system.mem_ctrls.readPktSize::6                181694                       # Read request sizes (log2)
system.mem_ctrls.writePktSize::0                    0                       # Write request sizes (log2)
system.mem_ctrls.writePktSize::1                    0                       # Write request sizes (log2)
system.mem_ctrls.writePktSize::2                    0                       # Write request sizes (log2)
system.mem_ctrls.writePktSize::3                    0                       # Write request sizes (log2)
system.mem_ctrls.writePktSize::4                    0                       # Write request sizes (log2)
system.mem_ctrls.writePktSize::5                    0                       # Write request sizes (log2)
system.mem_ctrls.writePktSize::6                  422                       # Write request sizes (log2)
system.mem_ctrls.rdQLenPdf::0                  140232                       # What read queue length does an incoming req see
system.mem_ctrls.rdQLenPdf::1                   38966                       # What read queue length does an incoming req see
system.mem_ctrls.rdQLenPdf::2                    2393                       # What read queue length does an incoming req see
system.mem_ctrls.rdQLenPdf::3                      48                       # What read queue length does an incoming req see
system.mem_ctrls.rdQLenPdf::4                       0                       # What read queue length does an incoming req see
system.mem_ctrls.rdQLenPdf::5                       0                       # What read queue length does an incoming req see
system.mem_ctrls.rdQLenPdf::6                       0                       # What read queue length does an incoming req see
system.mem_ctrls.rdQLenPdf::7                       0                       # What read queue length does an incoming req see
system.mem_ctrls.rdQLenPdf::8                       0                       # What read queue length does an incoming req see
system.mem_ctrls.rdQLenPdf::9                       0                       # What read queue length does an incoming req see
system.mem_ctrls.rdQLenPdf::10                      0                       # What read queue length does an incoming req see
system.mem_ctrls.rdQLenPdf::11                      0                       # What read queue length does an incoming req see
system.mem_ctrls.rdQLenPdf::12                      0                       # What read queue length does an incoming req see
system.mem_ctrls.rdQLenPdf::13                      0                       # What read queue length does an incoming req see
system.mem_ctrls.rdQLenPdf::14                      0                       # What read queue length does an incoming req see
system.mem_ctrls.rdQLenPdf::15                      0                       # What read queue length does an incoming req see
system.mem_ctrls.rdQLenPdf::16                      0                       # What read queue length does an incoming req see
system.mem_ctrls.rdQLenPdf::17                      0                       # What read queue length does an incoming req see
system.mem_ctrls.rdQLenPdf::18                      0                       # What read queue length does an incoming req see
system.mem_ctrls.rdQLenPdf::19                      0                       # What read queue length does an incoming req see
system.mem_ctrls.rdQLenPdf::20                      0                       # What read queue length does an incoming req see
system.mem_ctrls.rdQLenPdf::21                      0                       # What read queue length does an incoming req see
system.mem_ctrls.rdQLenPdf::22                      0                       # What read queue length does an incoming req see
system.mem_ctrls.rdQLenPdf::23                      0                       # What read queue length does an incoming req see
system.mem_ctrls.rdQLenPdf::24                      0                       # What read queue length does an incoming req see
system.mem_ctrls.rdQLenPdf::25                      0                       # What read queue length does an incoming req see
system.mem_ctrls.rdQLenPdf::26                      0                       # What read queue length does an incoming req see
system.mem_ctrls.rdQLenPdf::27                      0                       # What read queue length does an incoming req see
system.mem_ctrls.rdQLenPdf::28                      0                       # What read queue length does an incoming req see
system.mem_ctrls.rdQLenPdf::29                      0                       # What read queue length does an incoming req see
system.mem_ctrls.rdQLenPdf::30                      0                       # What read queue length does an incoming req see
system.mem_ctrls.rdQLenPdf::31                      0                       # What read queue length does an incoming req see
system.mem_ctrls.wrQLenPdf::0                       0                       # What write queue length does an incoming req see
system.mem_ctrls.wrQLenPdf::1                       0                       # What write queue length does an incoming req see
system.mem_ctrls.wrQLenPdf::2                       0                       # What write queue length does an incoming req see
system.mem_ctrls.wrQLenPdf::3                       0                       # What write queue length does an incoming req see
system.mem_ctrls.wrQLenPdf::4                       0                       # What write queue length does an incoming req see
system.mem_ctrls.wrQLenPdf::5                       0                       # What write queue length does an incoming req see
system.mem_ctrls.wrQLenPdf::6                       0                       # What write queue length does an incoming req see
system.mem_ctrls.wrQLenPdf::7                       0                       # What write queue length does an incoming req see
system.mem_ctrls.wrQLenPdf::8                       0                       # What write queue length does an incoming req see
system.mem_ctrls.wrQLenPdf::9                       0                       # What write queue length does an incoming req see
system.mem_ctrls.wrQLenPdf::10                      0                       # What write queue length does an incoming req see
system.mem_ctrls.wrQLenPdf::11                      0                       # What write queue length does an incoming req see
system.mem_ctrls.wrQLenPdf::12                      0                       # What write queue length does an incoming req see
system.mem_ctrls.wrQLenPdf::13                      0                       # What write queue length does an incoming req see
system.mem_ctrls.wrQLenPdf::14                      0                       # What write queue length does an incoming req see
system.mem_ctrls.wrQLenPdf::15                      0                       # What write queue length does an incoming req see
system.mem_ctrls.wrQLenPdf::16                      0                       # What write queue length does an incoming req see
system.mem_ctrls.wrQLenPdf::17                     26                       # What write queue length does an incoming req see
system.mem_ctrls.wrQLenPdf::18                     26                       # What write queue length does an incoming req see
system.mem_ctrls.wrQLenPdf::19                     26                       # What write queue length does an incoming req see
system.mem_ctrls.wrQLenPdf::20                     26                       # What write queue length does an incoming req see
system.mem_ctrls.wrQLenPdf::21                     26                       # What write queue length does an incoming req see
system.mem_ctrls.wrQLenPdf::22                     26                       # What write queue length does an incoming req see
system.mem_ctrls.wrQLenPdf::23                     27                       # What write queue length does an incoming req see
system.mem_ctrls.wrQLenPdf::24                     27                       # What write queue length does an incoming req see
system.mem_ctrls.wrQLenPdf::25                     27                       # What write queue length does an incoming req see
system.mem_ctrls.wrQLenPdf::26                     27                       # What write queue length does an incoming req see
system.mem_ctrls.wrQLenPdf::27                     27                       # What write queue length does an incoming req see
system.mem_ctrls.wrQLenPdf::28                     27                       # What write queue length does an incoming req see
system.mem_ctrls.wrQLenPdf::29                     26                       # What write queue length does an incoming req see
system.mem_ctrls.wrQLenPdf::30                     26                       # What write queue length does an incoming req see
system.mem_ctrls.wrQLenPdf::31                     26                       # What write queue length does an incoming req see
system.mem_ctrls.wrQLenPdf::32                     26                       # What write queue length does an incoming req see
system.mem_ctrls.wrQLenPdf::33                      0                       # What write queue length does an incoming req see
system.mem_ctrls.wrQLenPdf::34                      0                       # What write queue length does an incoming req see
system.mem_ctrls.wrQLenPdf::35                      0                       # What write queue length does an incoming req see
system.mem_ctrls.wrQLenPdf::36                      0                       # What write queue length does an incoming req see
system.mem_ctrls.wrQLenPdf::37                      0                       # What write queue length does an incoming req see
system.mem_ctrls.wrQLenPdf::38                      0                       # What write queue length does an incoming req see
system.mem_ctrls.wrQLenPdf::39                      0                       # What write queue length does an incoming req see
system.mem_ctrls.wrQLenPdf::40                      0                       # What write queue length does an incoming req see
system.mem_ctrls.wrQLenPdf::41                      0                       # What write queue length does an incoming req see
system.mem_ctrls.wrQLenPdf::42                      0                       # What write queue length does an incoming req see
system.mem_ctrls.wrQLenPdf::43                      0                       # What write queue length does an incoming req see
system.mem_ctrls.wrQLenPdf::44                      0                       # What write queue length does an incoming req see
system.mem_ctrls.wrQLenPdf::45                      0                       # What write queue length does an incoming req see
system.mem_ctrls.wrQLenPdf::46                      0                       # What write queue length does an incoming req see
system.mem_ctrls.wrQLenPdf::47                      0                       # What write queue length does an incoming req see
system.mem_ctrls.wrQLenPdf::48                      0                       # What write queue length does an incoming req see
system.mem_ctrls.wrQLenPdf::49                      0                       # What write queue length does an incoming req see
system.mem_ctrls.wrQLenPdf::50                      0                       # What write queue length does an incoming req see
system.mem_ctrls.wrQLenPdf::51                      0                       # What write queue length does an incoming req see
system.mem_ctrls.wrQLenPdf::52                      0                       # What write queue length does an incoming req see
system.mem_ctrls.wrQLenPdf::53                      0                       # What write queue length does an incoming req see
system.mem_ctrls.wrQLenPdf::54                      0                       # What write queue length does an incoming req see
system.mem_ctrls.wrQLenPdf::55                      0                       # What write queue length does an incoming req see
system.mem_ctrls.wrQLenPdf::56                      0                       # What write queue length does an incoming req see
system.mem_ctrls.wrQLenPdf::57                      0                       # What write queue length does an incoming req see
system.mem_ctrls.wrQLenPdf::58                      0                       # What write queue length does an incoming req see
system.mem_ctrls.wrQLenPdf::59                      0                       # What write queue length does an incoming req see
system.mem_ctrls.wrQLenPdf::60                      0                       # What write queue length does an incoming req see
system.mem_ctrls.wrQLenPdf::61                      0                       # What write queue length does an incoming req see
system.mem_ctrls.wrQLenPdf::62                      0                       # What write queue length does an incoming req see
system.mem_ctrls.wrQLenPdf::63                      0                       # What write queue length does an incoming req see
system.mem_ctrls.bytesPerActivate::samples        96705                       # Bytes accessed per row activation
system.mem_ctrls.bytesPerActivate::mean    120.482540                       # Bytes accessed per row activation
system.mem_ctrls.bytesPerActivate::gmean   104.021887                       # Bytes accessed per row activation
system.mem_ctrls.bytesPerActivate::stdev    72.336230                       # Bytes accessed per row activation
system.mem_ctrls.bytesPerActivate::0-127        46733     48.33%     48.33% # Bytes accessed per row activation
system.mem_ctrls.bytesPerActivate::128-255        41096     42.50%     90.82% # Bytes accessed per row activation
system.mem_ctrls.bytesPerActivate::256-383         7836      8.10%     98.92% # Bytes accessed per row activation
system.mem_ctrls.bytesPerActivate::384-511          930      0.96%     99.89% # Bytes accessed per row activation
system.mem_ctrls.bytesPerActivate::512-639           85      0.09%     99.97% # Bytes accessed per row activation
system.mem_ctrls.bytesPerActivate::640-767            9      0.01%     99.98% # Bytes accessed per row activation
system.mem_ctrls.bytesPerActivate::768-895            5      0.01%     99.99% # Bytes accessed per row activation
system.mem_ctrls.bytesPerActivate::896-1023            3      0.00%     99.99% # Bytes accessed per row activation
system.mem_ctrls.bytesPerActivate::1024-1151            8      0.01%    100.00% # Bytes accessed per row activation
system.mem_ctrls.bytesPerActivate::total        96705                       # Bytes accessed per row activation
system.mem_ctrls.rdPerTurnAround::samples           26                       # Reads before turning the bus around for writes
system.mem_ctrls.rdPerTurnAround::mean    6923.576923                       # Reads before turning the bus around for writes
system.mem_ctrls.rdPerTurnAround::gmean   6676.257920                       # Reads before turning the bus around for writes
system.mem_ctrls.rdPerTurnAround::stdev   1924.948751                       # Reads before turning the bus around for writes
system.mem_ctrls.rdPerTurnAround::4096-4607            3     11.54%     11.54% # Reads before turning the bus around for writes
system.mem_ctrls.rdPerTurnAround::4608-5119            2      7.69%     19.23% # Reads before turning the bus around for writes
system.mem_ctrls.rdPerTurnAround::5120-5631            2      7.69%     26.92% # Reads before turning the bus around for writes
system.mem_ctrls.rdPerTurnAround::5632-6143            2      7.69%     34.62% # Reads before turning the bus around for writes
system.mem_ctrls.rdPerTurnAround::6144-6655            4     15.38%     50.00% # Reads before turning the bus around for writes
system.mem_ctrls.rdPerTurnAround::6656-7167            4     15.38%     65.38% # Reads before turning the bus around for writes
system.mem_ctrls.rdPerTurnAround::7168-7679            2      7.69%     73.08% # Reads before turning the bus around for writes
system.mem_ctrls.rdPerTurnAround::7680-8191            1      3.85%     76.92% # Reads before turning the bus around for writes
system.mem_ctrls.rdPerTurnAround::8192-8703            1      3.85%     80.77% # Reads before turning the bus around for writes
system.mem_ctrls.rdPerTurnAround::9216-9727            1      3.85%     84.62% # Reads before turning the bus around for writes
system.mem_ctrls.rdPerTurnAround::9728-10239            2      7.69%     92.31% # Reads before turning the bus around for writes
system.mem_ctrls.rdPerTurnAround::10240-10751            2      7.69%    100.00% # Reads before turning the bus around for writes
system.mem_ctrls.rdPerTurnAround::total            26                       # Reads before turning the bus around for writes
system.mem_ctrls.wrPerTurnAround::samples           26                       # Writes before turning the bus around for reads
system.mem_ctrls.wrPerTurnAround::mean             16                       # Writes before turning the bus around for reads
system.mem_ctrls.wrPerTurnAround::gmean     16.000000                       # Writes before turning the bus around for reads
system.mem_ctrls.wrPerTurnAround::16               26    100.00%    100.00% # Writes before turning the bus around for reads
system.mem_ctrls.wrPerTurnAround::total            26                       # Writes before turning the bus around for reads
system.mem_ctrls.totQLat                   4551332750                       # Total ticks spent queuing
system.mem_ctrls.totMemAccLat              7957064000                       # Total ticks spent from burst creation until serviced by the DRAM
system.mem_ctrls.totBusLat                  908195000                       # Total ticks spent in databus transfers
system.mem_ctrls.avgQLat                     25057.02                       # Average queueing delay per DRAM burst
system.mem_ctrls.avgBusLat                    5000.00                       # Average bus latency per DRAM burst
system.mem_ctrls.avgMemAccLat                43807.02                       # Average memory access latency per DRAM burst
system.mem_ctrls.avgRdBW                       761.42                       # Average DRAM read bandwidth in MiByte/s
system.mem_ctrls.avgWrBW                         1.74                       # Average achieved write bandwidth in MiByte/s
system.mem_ctrls.avgRdBWSys                    761.65                       # Average system read bandwidth in MiByte/s
system.mem_ctrls.avgWrBWSys                      1.77                       # Average system write bandwidth in MiByte/s
system.mem_ctrls.peakBW                      12800.00                       # Theoretical peak bandwidth in MiByte/s
system.mem_ctrls.busUtil                         5.96                       # Data bus utilization in percentage
system.mem_ctrls.busUtilRead                     5.95                       # Data bus utilization in percentage for reads
system.mem_ctrls.busUtilWrite                    0.01                       # Data bus utilization in percentage for writes
system.mem_ctrls.avgRdQLen                       1.29                       # Average read queue length when enqueuing
system.mem_ctrls.avgWrQLen                      25.25                       # Average write queue length when enqueuing
system.mem_ctrls.readRowHits                    84991                       # Number of row buffer hits during reads
system.mem_ctrls.writeRowHits                     359                       # Number of row buffer hits during writes
system.mem_ctrls.readRowHitRate                 46.79                       # Row buffer hit rate for reads
system.mem_ctrls.writeRowHitRate                85.07                       # Row buffer hit rate for writes
system.mem_ctrls.avgGap                      83833.31                       # Average gap between requests
system.mem_ctrls.pageHitRate                    46.88                       # Row buffer hit rate, read and write combined
system.mem_ctrls_0.actEnergy                343855260                       # Energy for activate commands per rank (pJ)
system.mem_ctrls_0.preEnergy                182763405                       # Energy for precharge commands per rank (pJ)
system.mem_ctrls_0.readEnergy               643942320                       # Energy for read commands per rank (pJ)
system.mem_ctrls_0.writeEnergy                1691280                       # Energy for write commands per rank (pJ)
system.mem_ctrls_0.refreshEnergy         1207152960.000000                       # Energy for refresh commands per rank (pJ)
system.mem_ctrls_0.actBackEnergy           1566825120                       # Energy for active background per rank (pJ)
system.mem_ctrls_0.preBackEnergy             24996480                       # Energy for precharge background per rank (pJ)
system.mem_ctrls_0.actPowerDownEnergy      5206849680                       # Energy for active power-down per rank (pJ)
system.mem_ctrls_0.prePowerDownEnergy       127998240                       # Energy for precharge power-down per rank (pJ)
system.mem_ctrls_0.selfRefreshEnergy          6210000                       # Energy for self refresh per rank (pJ)
system.mem_ctrls_0.totalEnergy             9312328785                       # Total energy per rank (pJ)
system.mem_ctrls_0.averagePower            609.950801                       # Core power per rank (mW)
system.mem_ctrls_0.totalIdleTime          11766426375                       # Total Idle time Per DRAM Rank
system.mem_ctrls_0.memoryStateTime::IDLE     10854000                       # Time in different power states
system.mem_ctrls_0.memoryStateTime::REF     510670000                       # Time in different power states
system.mem_ctrls_0.memoryStateTime::SREF     14272500                       # Time in different power states
system.mem_ctrls_0.memoryStateTime::PRE_PDN    333488000                       # Time in different power states
system.mem_ctrls_0.memoryStateTime::ACT    2979051250                       # Time in different power states
system.mem_ctrls_0.memoryStateTime::ACT_PDN  11419008375                       # Time in different power states
system.mem_ctrls_1.actEnergy                346618440                       # Energy for activate commands per rank (pJ)
system.mem_ctrls_1.preEnergy                184232070                       # Energy for precharge commands per rank (pJ)
system.mem_ctrls_1.readEnergy               652960140                       # Energy for read commands per rank (pJ)
system.mem_ctrls_1.writeEnergy                 480240                       # Energy for write commands per rank (pJ)
system.mem_ctrls_1.refreshEnergy         1205309040.000000                       # Energy for refresh commands per rank (pJ)
system.mem_ctrls_1.actBackEnergy           1580811210                       # Energy for active background per rank (pJ)
system.mem_ctrls_1.preBackEnergy             24759360                       # Energy for precharge background per rank (pJ)
system.mem_ctrls_1.actPowerDownEnergy      5206448400                       # Energy for active power-down per rank (pJ)
system.mem_ctrls_1.prePowerDownEnergy       118627200                       # Energy for precharge power-down per rank (pJ)
system.mem_ctrls_1.selfRefreshEnergy          3408480                       # Energy for self refresh per rank (pJ)
system.mem_ctrls_1.totalEnergy             9323654580                       # Total energy per rank (pJ)
system.mem_ctrls_1.averagePower            610.692633                       # Core power per rank (mW)
system.mem_ctrls_1.totalIdleTime          11736720375                       # Total Idle time Per DRAM Rank
system.mem_ctrls_1.memoryStateTime::IDLE     10065000                       # Time in different power states
system.mem_ctrls_1.memoryStateTime::REF     509872000                       # Time in different power states
system.mem_ctrls_1.memoryStateTime::SREF      9600500                       # Time in different power states
system.mem_ctrls_1.memoryStateTime::PRE_PDN    309091500                       # Time in different power states
system.mem_ctrls_1.memoryStateTime::ACT    3010686750                       # Time in different power states
system.mem_ctrls_1.memoryStateTime::ACT_PDN  11418028375                       # Time in different power states
system.pwrStateResidencyTicks::UNDEFINED  15267344125                       # Cumulative time (in ticks) in various power states
system.cpu0.branchPred.lookups                1617106                       # Number of BP lookups
system.cpu0.branchPred.condPredicted          1617106                       # Number of conditional branches predicted
system.cpu0.branchPred.condIncorrect            63626                       # Number of conditional branches incorrect
system.cpu0.branchPred.BTBLookups             1223680                       # Number of BTB lookups
system.cpu0.branchPred.BTBHits                      0                       # Number of BTB hits
system.cpu0.branchPred.BTBCorrect                   0                       # Number of correct BTB predictions (this stat may not work properly.
system.cpu0.branchPred.BTBHitPct             0.000000                       # BTB Hit Percentage
system.cpu0.branchPred.usedRAS                  42366                       # Number of times the RAS was used to get a target.
system.cpu0.branchPred.RASInCorrect              5946                       # Number of incorrect RAS predictions.
system.cpu0.branchPred.indirectLookups        1223680                       # Number of indirect predictor lookups.
system.cpu0.branchPred.indirectHits            701450                       # Number of indirect target hits.
system.cpu0.branchPred.indirectMisses          522230                       # Number of indirect misses.
system.cpu0.branchPredindirectMispredicted        20639                       # Number of mispredicted indirect branches.
system.cpu_voltage_domain.voltage                   1                       # Voltage in Volts
system.cpu_clk_domain.clock                       500                       # Clock period in ticks
system.cpu0.dtb.walker.pwrStateResidencyTicks::UNDEFINED  15267344125                       # Cumulative time (in ticks) in various power states
system.cpu0.dtb.rdAccesses                     797143                       # TLB accesses on read requests
system.cpu0.dtb.wrAccesses                      53430                       # TLB accesses on write requests
system.cpu0.dtb.rdMisses                       179305                       # TLB misses on read requests
system.cpu0.dtb.wrMisses                          887                       # TLB misses on write requests
system.cpu0.apic_clk_domain.clock                8000                       # Clock period in ticks
system.cpu0.interrupts.pwrStateResidencyTicks::UNDEFINED  15267344125                       # Cumulative time (in ticks) in various power states
system.cpu0.itb.walker.pwrStateResidencyTicks::UNDEFINED  15267344125                       # Cumulative time (in ticks) in various power states
system.cpu0.itb.rdAccesses                          0                       # TLB accesses on read requests
system.cpu0.itb.wrAccesses                    1375852                       # TLB accesses on write requests
system.cpu0.itb.rdMisses                            0                       # TLB misses on read requests
system.cpu0.itb.wrMisses                         3994                       # TLB misses on write requests
system.cpu0.workload.numSyscalls                    0                       # Number of system calls
system.cpu0.pwrStateResidencyTicks::ON    15267344125                       # Cumulative time (in ticks) in various power states
system.cpu0.numCycles                        30534688                       # number of cpu cycles simulated
system.cpu0.numWorkItemsStarted                     0                       # number of work items this cpu started
system.cpu0.numWorkItemsCompleted                   0                       # number of work items this cpu completed
system.cpu0.fetch.icacheStallCycles           1404249                       # Number of cycles fetch is stalled on an Icache miss
system.cpu0.fetch.Insts                       4668775                       # Number of instructions fetch has processed
system.cpu0.fetch.Branches                    1617106                       # Number of branches that fetch encountered
system.cpu0.fetch.predictedBranches            743816                       # Number of branches that fetch has predicted taken
system.cpu0.fetch.Cycles                     28983378                       # Number of cycles fetch has run and was not squashing or blocked
system.cpu0.fetch.SquashCycles                 129848                       # Number of cycles fetch has spent squashing
system.cpu0.fetch.TlbCycles                      1500                       # Number of cycles fetch has spent waiting for tlb
system.cpu0.fetch.MiscStallCycles                 823                       # Number of cycles fetch has spent waiting on interrupts, or bad addresses, or out of MSHRs
system.cpu0.fetch.PendingTrapStallCycles        37273                       # Number of stall cycles due to pending traps
system.cpu0.fetch.CacheLines                  1371858                       # Number of cache lines fetched
system.cpu0.fetch.IcacheSquashes                 7888                       # Number of outstanding Icache misses that were squashed
system.cpu0.fetch.ItlbSquashes                     10                       # Number of outstanding ITLB misses that were squashed
system.cpu0.fetch.rateDist::samples          30492147                       # Number of instructions fetched each cycle (Total)
system.cpu0.fetch.rateDist::mean             0.307847                       # Number of instructions fetched each cycle (Total)
system.cpu0.fetch.rateDist::stdev            1.392044                       # Number of instructions fetched each cycle (Total)
system.cpu0.fetch.rateDist::underflows              0      0.00%      0.00% # Number of instructions fetched each cycle (Total)
system.cpu0.fetch.rateDist::0                28652694     93.97%     93.97% # Number of instructions fetched each cycle (Total)
system.cpu0.fetch.rateDist::1                   18175      0.06%     94.03% # Number of instructions fetched each cycle (Total)
system.cpu0.fetch.rateDist::2                  691599      2.27%     96.30% # Number of instructions fetched each cycle (Total)
system.cpu0.fetch.rateDist::3                   26599      0.09%     96.38% # Number of instructions fetched each cycle (Total)
system.cpu0.fetch.rateDist::4                  132960      0.44%     96.82% # Number of instructions fetched each cycle (Total)
system.cpu0.fetch.rateDist::5                   59361      0.19%     97.01% # Number of instructions fetched each cycle (Total)
system.cpu0.fetch.rateDist::6                   93744      0.31%     97.32% # Number of instructions fetched each cycle (Total)
system.cpu0.fetch.rateDist::7                   21472      0.07%     97.39% # Number of instructions fetched each cycle (Total)
system.cpu0.fetch.rateDist::8                  795543      2.61%    100.00% # Number of instructions fetched each cycle (Total)
system.cpu0.fetch.rateDist::overflows               0      0.00%    100.00% # Number of instructions fetched each cycle (Total)
system.cpu0.fetch.rateDist::min_value               0                       # Number of instructions fetched each cycle (Total)
system.cpu0.fetch.rateDist::max_value               8                       # Number of instructions fetched each cycle (Total)
system.cpu0.fetch.rateDist::total            30492147                       # Number of instructions fetched each cycle (Total)
system.cpu0.fetch.branchRate                 0.052960                       # Number of branch fetches per cycle
system.cpu0.fetch.rate                       0.152901                       # Number of inst fetches per cycle
system.cpu0.decode.IdleCycles                  677671                       # Number of cycles decode is idle
system.cpu0.decode.BlockedCycles             28551355                       # Number of cycles decode is blocked
system.cpu0.decode.RunCycles                   852768                       # Number of cycles decode is running
system.cpu0.decode.UnblockCycles               345429                       # Number of cycles decode is unblocking
system.cpu0.decode.SquashCycles                 64924                       # Number of cycles decode is squashing
system.cpu0.decode.DecodedInsts               7834960                       # Number of instructions handled by decode
system.cpu0.rename.SquashCycles                 64924                       # Number of cycles rename is squashing
system.cpu0.rename.IdleCycles                  782741                       # Number of cycles rename is idle
system.cpu0.rename.BlockCycles               27224302                       # Number of cycles rename is blocking
system.cpu0.rename.serializeStallCycles         11876                       # count of cycles rename stalled for serializing inst
system.cpu0.rename.RunCycles                  1012357                       # Number of cycles rename is running
system.cpu0.rename.UnblockCycles              1395947                       # Number of cycles rename is unblocking
system.cpu0.rename.RenamedInsts               7537108                       # Number of instructions processed by rename
system.cpu0.rename.ROBFullEvents                60228                       # Number of times rename has blocked due to ROB full
system.cpu0.rename.IQFullEvents               1176141                       # Number of times rename has blocked due to IQ full
system.cpu0.rename.LQFullEvents                158700                       # Number of times rename has blocked due to LQ full
system.cpu0.rename.SQFullEvents                  3569                       # Number of times rename has blocked due to SQ full
system.cpu0.rename.RenamedOperands            8997501                       # Number of destination operands rename has renamed
system.cpu0.rename.RenameLookups             21024780                       # Number of register rename lookups that rename has made
system.cpu0.rename.int_rename_lookups         9844930                       # Number of integer rename lookups
system.cpu0.rename.fp_rename_lookups            37775                       # Number of floating rename lookups
system.cpu0.rename.CommittedMaps              3565825                       # Number of HB maps that are committed
system.cpu0.rename.UndoneMaps                 5431671                       # Number of HB maps that are undone due to squashing
system.cpu0.rename.serializingInsts               299                       # count of serializing insts renamed
system.cpu0.rename.tempSerializingInsts           366                       # count of temporary serializing insts renamed
system.cpu0.rename.skidInsts                  2202126                       # count of insts added to the skid buffer
system.cpu0.memDep0.insertedLoads             1355430                       # Number of loads inserted to the mem dependence unit.
system.cpu0.memDep0.insertedStores              77904                       # Number of stores inserted to the mem dependence unit.
system.cpu0.memDep0.conflictingLoads             4957                       # Number of conflicting loads.
system.cpu0.memDep0.conflictingStores            5139                       # Number of conflicting stores.
system.cpu0.iq.iqInstsAdded                   7179532                       # Number of instructions added to the IQ (excludes non-spec)
system.cpu0.iq.iqNonSpecInstsAdded               4663                       # Number of non-speculative instructions added to the IQ
system.cpu0.iq.iqInstsIssued                  5250613                       # Number of instructions issued
system.cpu0.iq.iqSquashedInstsIssued             6806                       # Number of squashed instructions issued
system.cpu0.iq.iqSquashedInstsExamined        4215295                       # Number of squashed instructions iterated over during squash; mainly for profiling
system.cpu0.iq.iqSquashedOperandsExamined      8887915                       # Number of squashed operands that are examined and possibly removed from graph
system.cpu0.iq.iqSquashedNonSpecRemoved          4663                       # Number of squashed non-spec instructions that were removed
system.cpu0.iq.issued_per_cycle::samples     30492147                       # Number of insts issued each cycle
system.cpu0.iq.issued_per_cycle::mean        0.172196                       # Number of insts issued each cycle
system.cpu0.iq.issued_per_cycle::stdev       0.747927                       # Number of insts issued each cycle
system.cpu0.iq.issued_per_cycle::underflows            0      0.00%      0.00% # Number of insts issued each cycle
system.cpu0.iq.issued_per_cycle::0           28280615     92.75%     92.75% # Number of insts issued each cycle
system.cpu0.iq.issued_per_cycle::1             907485      2.98%     95.72% # Number of insts issued each cycle
system.cpu0.iq.issued_per_cycle::2             475075      1.56%     97.28% # Number of insts issued each cycle
system.cpu0.iq.issued_per_cycle::3             322150      1.06%     98.34% # Number of insts issued each cycle
system.cpu0.iq.issued_per_cycle::4             296002      0.97%     99.31% # Number of insts issued each cycle
system.cpu0.iq.issued_per_cycle::5              89780      0.29%     99.60% # Number of insts issued each cycle
system.cpu0.iq.issued_per_cycle::6              73777      0.24%     99.84% # Number of insts issued each cycle
system.cpu0.iq.issued_per_cycle::7              27146      0.09%     99.93% # Number of insts issued each cycle
system.cpu0.iq.issued_per_cycle::8              20117      0.07%    100.00% # Number of insts issued each cycle
system.cpu0.iq.issued_per_cycle::overflows            0      0.00%    100.00% # Number of insts issued each cycle
system.cpu0.iq.issued_per_cycle::min_value            0                       # Number of insts issued each cycle
system.cpu0.iq.issued_per_cycle::max_value            8                       # Number of insts issued each cycle
system.cpu0.iq.issued_per_cycle::total       30492147                       # Number of insts issued each cycle
system.cpu0.iq.fu_full::No_OpClass                  0      0.00%      0.00% # attempts to use FU when none available
system.cpu0.iq.fu_full::IntAlu                  11839     69.72%     69.72% # attempts to use FU when none available
system.cpu0.iq.fu_full::IntMult                     0      0.00%     69.72% # attempts to use FU when none available
system.cpu0.iq.fu_full::IntDiv                      0      0.00%     69.72% # attempts to use FU when none available
system.cpu0.iq.fu_full::FloatAdd                 1142      6.73%     76.44% # attempts to use FU when none available
system.cpu0.iq.fu_full::FloatCmp                    0      0.00%     76.44% # attempts to use FU when none available
system.cpu0.iq.fu_full::FloatCvt                    0      0.00%     76.44% # attempts to use FU when none available
system.cpu0.iq.fu_full::FloatMult                   0      0.00%     76.44% # attempts to use FU when none available
system.cpu0.iq.fu_full::FloatMultAcc                0      0.00%     76.44% # attempts to use FU when none available
system.cpu0.iq.fu_full::FloatDiv                    0      0.00%     76.44% # attempts to use FU when none available
system.cpu0.iq.fu_full::FloatMisc                   0      0.00%     76.44% # attempts to use FU when none available
system.cpu0.iq.fu_full::FloatSqrt                   0      0.00%     76.44% # attempts to use FU when none available
system.cpu0.iq.fu_full::SimdAdd                     0      0.00%     76.44% # attempts to use FU when none available
system.cpu0.iq.fu_full::SimdAddAcc                  0      0.00%     76.44% # attempts to use FU when none available
system.cpu0.iq.fu_full::SimdAlu                     0      0.00%     76.44% # attempts to use FU when none available
system.cpu0.iq.fu_full::SimdCmp                     0      0.00%     76.44% # attempts to use FU when none available
system.cpu0.iq.fu_full::SimdCvt                     0      0.00%     76.44% # attempts to use FU when none available
system.cpu0.iq.fu_full::SimdMisc                    0      0.00%     76.44% # attempts to use FU when none available
system.cpu0.iq.fu_full::SimdMult                    0      0.00%     76.44% # attempts to use FU when none available
system.cpu0.iq.fu_full::SimdMultAcc                 0      0.00%     76.44% # attempts to use FU when none available
system.cpu0.iq.fu_full::SimdShift                   0      0.00%     76.44% # attempts to use FU when none available
system.cpu0.iq.fu_full::SimdShiftAcc                0      0.00%     76.44% # attempts to use FU when none available
system.cpu0.iq.fu_full::SimdSqrt                    0      0.00%     76.44% # attempts to use FU when none available
system.cpu0.iq.fu_full::SimdFloatAdd                0      0.00%     76.44% # attempts to use FU when none available
system.cpu0.iq.fu_full::SimdFloatAlu                0      0.00%     76.44% # attempts to use FU when none available
system.cpu0.iq.fu_full::SimdFloatCmp                0      0.00%     76.44% # attempts to use FU when none available
system.cpu0.iq.fu_full::SimdFloatCvt                0      0.00%     76.44% # attempts to use FU when none available
system.cpu0.iq.fu_full::SimdFloatDiv                0      0.00%     76.44% # attempts to use FU when none available
system.cpu0.iq.fu_full::SimdFloatMisc               0      0.00%     76.44% # attempts to use FU when none available
system.cpu0.iq.fu_full::SimdFloatMult               0      0.00%     76.44% # attempts to use FU when none available
system.cpu0.iq.fu_full::SimdFloatMultAcc            0      0.00%     76.44% # attempts to use FU when none available
system.cpu0.iq.fu_full::SimdFloatSqrt               0      0.00%     76.44% # attempts to use FU when none available
system.cpu0.iq.fu_full::MemRead                  3605     21.23%     97.67% # attempts to use FU when none available
system.cpu0.iq.fu_full::MemWrite                  286      1.68%     99.36% # attempts to use FU when none available
system.cpu0.iq.fu_full::FloatMemRead               85      0.50%     99.86% # attempts to use FU when none available
system.cpu0.iq.fu_full::FloatMemWrite              24      0.14%    100.00% # attempts to use FU when none available
system.cpu0.iq.fu_full::IprAccess                   0      0.00%    100.00% # attempts to use FU when none available
system.cpu0.iq.fu_full::InstPrefetch                0      0.00%    100.00% # attempts to use FU when none available
system.cpu0.iq.FU_type_0::No_OpClass            15691      0.30%      0.30% # Type of FU issued
system.cpu0.iq.FU_type_0::IntAlu              4320352     82.28%     82.58% # Type of FU issued
system.cpu0.iq.FU_type_0::IntMult                1231      0.02%     82.61% # Type of FU issued
system.cpu0.iq.FU_type_0::IntDiv                10732      0.20%     82.81% # Type of FU issued
system.cpu0.iq.FU_type_0::FloatAdd              14702      0.28%     83.09% # Type of FU issued
system.cpu0.iq.FU_type_0::FloatCmp                  0      0.00%     83.09% # Type of FU issued
system.cpu0.iq.FU_type_0::FloatCvt                  0      0.00%     83.09% # Type of FU issued
system.cpu0.iq.FU_type_0::FloatMult                 0      0.00%     83.09% # Type of FU issued
system.cpu0.iq.FU_type_0::FloatMultAcc              0      0.00%     83.09% # Type of FU issued
system.cpu0.iq.FU_type_0::FloatDiv                  0      0.00%     83.09% # Type of FU issued
system.cpu0.iq.FU_type_0::FloatMisc                 0      0.00%     83.09% # Type of FU issued
system.cpu0.iq.FU_type_0::FloatSqrt                 0      0.00%     83.09% # Type of FU issued
system.cpu0.iq.FU_type_0::SimdAdd                   0      0.00%     83.09% # Type of FU issued
system.cpu0.iq.FU_type_0::SimdAddAcc                0      0.00%     83.09% # Type of FU issued
system.cpu0.iq.FU_type_0::SimdAlu                   0      0.00%     83.09% # Type of FU issued
system.cpu0.iq.FU_type_0::SimdCmp                   0      0.00%     83.09% # Type of FU issued
system.cpu0.iq.FU_type_0::SimdCvt                   0      0.00%     83.09% # Type of FU issued
system.cpu0.iq.FU_type_0::SimdMisc                  0      0.00%     83.09% # Type of FU issued
system.cpu0.iq.FU_type_0::SimdMult                  0      0.00%     83.09% # Type of FU issued
system.cpu0.iq.FU_type_0::SimdMultAcc               0      0.00%     83.09% # Type of FU issued
system.cpu0.iq.FU_type_0::SimdShift                 0      0.00%     83.09% # Type of FU issued
system.cpu0.iq.FU_type_0::SimdShiftAcc              0      0.00%     83.09% # Type of FU issued
system.cpu0.iq.FU_type_0::SimdSqrt                  0      0.00%     83.09% # Type of FU issued
system.cpu0.iq.FU_type_0::SimdFloatAdd              0      0.00%     83.09% # Type of FU issued
system.cpu0.iq.FU_type_0::SimdFloatAlu              0      0.00%     83.09% # Type of FU issued
system.cpu0.iq.FU_type_0::SimdFloatCmp              0      0.00%     83.09% # Type of FU issued
system.cpu0.iq.FU_type_0::SimdFloatCvt              0      0.00%     83.09% # Type of FU issued
system.cpu0.iq.FU_type_0::SimdFloatDiv              0      0.00%     83.09% # Type of FU issued
system.cpu0.iq.FU_type_0::SimdFloatMisc             0      0.00%     83.09% # Type of FU issued
system.cpu0.iq.FU_type_0::SimdFloatMult             0      0.00%     83.09% # Type of FU issued
system.cpu0.iq.FU_type_0::SimdFloatMultAcc            0      0.00%     83.09% # Type of FU issued
system.cpu0.iq.FU_type_0::SimdFloatSqrt             0      0.00%     83.09% # Type of FU issued
system.cpu0.iq.FU_type_0::MemRead              827945     15.77%     98.86% # Type of FU issued
system.cpu0.iq.FU_type_0::MemWrite              57415      1.09%     99.95% # Type of FU issued
system.cpu0.iq.FU_type_0::FloatMemRead           2489      0.05%    100.00% # Type of FU issued
system.cpu0.iq.FU_type_0::FloatMemWrite            56      0.00%    100.00% # Type of FU issued
system.cpu0.iq.FU_type_0::IprAccess                 0      0.00%    100.00% # Type of FU issued
system.cpu0.iq.FU_type_0::InstPrefetch              0      0.00%    100.00% # Type of FU issued
system.cpu0.iq.FU_type_0::total               5250613                       # Type of FU issued
system.cpu0.iq.rate                          0.171956                       # Inst issue rate
system.cpu0.iq.fu_busy_cnt                      16981                       # FU busy when requested
system.cpu0.iq.fu_busy_rate                  0.003234                       # FU busy rate (busy events/executed inst)
system.cpu0.iq.int_inst_queue_reads          40981205                       # Number of integer instruction queue reads
system.cpu0.iq.int_inst_queue_writes         11369283                       # Number of integer instruction queue writes
system.cpu0.iq.int_inst_queue_wakeup_accesses      5050951                       # Number of integer instruction queue wakeup accesses
system.cpu0.iq.fp_inst_queue_reads              35955                       # Number of floating instruction queue reads
system.cpu0.iq.fp_inst_queue_writes             30210                       # Number of floating instruction queue writes
system.cpu0.iq.fp_inst_queue_wakeup_accesses        16153                       # Number of floating instruction queue wakeup accesses
system.cpu0.iq.vec_inst_queue_reads                 0                       # Number of vector instruction queue reads
system.cpu0.iq.vec_inst_queue_writes                0                       # Number of vector instruction queue writes
system.cpu0.iq.vec_inst_queue_wakeup_accesses            0                       # Number of vector instruction queue wakeup accesses
system.cpu0.iq.int_alu_accesses               5233401                       # Number of integer alu accesses
system.cpu0.iq.fp_alu_accesses                  18502                       # Number of floating point alu accesses
system.cpu0.iq.vec_alu_accesses                     0                       # Number of vector alu accesses
system.cpu0.iew.lsq.thread0.forwLoads            5218                       # Number of loads that had data forwarded from stores
system.cpu0.iew.lsq.thread0.invAddrLoads            0                       # Number of loads ignored due to an invalid address
system.cpu0.iew.lsq.thread0.squashedLoads       798551                       # Number of loads squashed
system.cpu0.iew.lsq.thread0.ignoredResponses          177                       # Number of memory responses ignored because the instruction is squashed
system.cpu0.iew.lsq.thread0.memOrderViolation            4                       # Number of memory ordering violations
system.cpu0.iew.lsq.thread0.squashedStores        46618                       # Number of stores squashed
system.cpu0.iew.lsq.thread0.invAddrSwpfs            0                       # Number of software prefetches ignored due to an invalid address
system.cpu0.iew.lsq.thread0.blockedLoads            0                       # Number of blocked loads due to partial load-store forwarding
system.cpu0.iew.lsq.thread0.rescheduledLoads           44                       # Number of loads that were rescheduled
system.cpu0.iew.lsq.thread0.cacheBlocked         1856                       # Number of times an access to memory failed due to the cache being blocked
system.cpu0.iew.iewIdleCycles                       0                       # Number of cycles IEW is idle
system.cpu0.iew.iewSquashCycles                 64924                       # Number of cycles IEW is squashing
system.cpu0.iew.iewBlockCycles               25415106                       # Number of cycles IEW is blocking
system.cpu0.iew.iewUnblockCycles               267931                       # Number of cycles IEW is unblocking
system.cpu0.iew.iewDispatchedInsts            7184195                       # Number of instructions dispatched to IQ
system.cpu0.iew.iewDispSquashedInsts             3609                       # Number of squashed instructions skipped by dispatch
system.cpu0.iew.iewDispLoadInsts              1355430                       # Number of dispatched load instructions
system.cpu0.iew.iewDispStoreInsts               77904                       # Number of dispatched store instructions
system.cpu0.iew.iewDispNonSpecInsts              1734                       # Number of dispatched non-speculative instructions
system.cpu0.iew.iewIQFullEvents                 16628                       # Number of times the IQ has become full, causing a stall
system.cpu0.iew.iewLSQFullEvents                36682                       # Number of times the LSQ has become full, causing a stall
system.cpu0.iew.memOrderViolationEvents             4                       # Number of memory order violations
system.cpu0.iew.predictedTakenIncorrect         35566                       # Number of branches that were predicted taken incorrectly
system.cpu0.iew.predictedNotTakenIncorrect        36400                       # Number of branches that were predicted not taken incorrectly
system.cpu0.iew.branchMispredicts               71966                       # Number of branch mispredicts detected at execute
system.cpu0.iew.iewExecutedInsts              5164970                       # Number of executed instructions
system.cpu0.iew.iewExecLoadInsts               796879                       # Number of load instructions executed
system.cpu0.iew.iewExecSquashedInsts            85643                       # Number of squashed instructions skipped in execute
system.cpu0.iew.exec_swp                            0                       # number of swp insts executed
system.cpu0.iew.exec_nop                            0                       # number of nop insts executed
system.cpu0.iew.exec_refs                      850293                       # number of memory reference insts executed
system.cpu0.iew.exec_branches                  647614                       # Number of branches executed
system.cpu0.iew.exec_stores                     53414                       # Number of stores executed
system.cpu0.iew.exec_rate                    0.169151                       # Inst execution rate
system.cpu0.iew.wb_sent                       5083079                       # cumulative count of insts sent to commit
system.cpu0.iew.wb_count                      5067104                       # cumulative count of insts written-back
system.cpu0.iew.wb_producers                  3676033                       # num instructions producing a value
system.cpu0.iew.wb_consumers                  5942809                       # num instructions consuming a value
system.cpu0.iew.wb_rate                      0.165946                       # insts written-back per cycle
system.cpu0.iew.wb_fanout                    0.618568                       # average fanout of values written-back
system.cpu0.commit.commitSquashedInsts        4215784                       # The number of squashed insts skipped by commit
system.cpu0.commit.branchMispredicts            64921                       # The number of times a branch was mispredicted
system.cpu0.commit.committed_per_cycle::samples     29900387                       # Number of insts commited each cycle
system.cpu0.commit.committed_per_cycle::mean     0.099293                       # Number of insts commited each cycle
system.cpu0.commit.committed_per_cycle::stdev     0.580030                       # Number of insts commited each cycle
system.cpu0.commit.committed_per_cycle::underflows            0      0.00%      0.00% # Number of insts commited each cycle
system.cpu0.commit.committed_per_cycle::0     28610977     95.69%     95.69% # Number of insts commited each cycle
system.cpu0.commit.committed_per_cycle::1       589330      1.97%     97.66% # Number of insts commited each cycle
system.cpu0.commit.committed_per_cycle::2       149118      0.50%     98.16% # Number of insts commited each cycle
system.cpu0.commit.committed_per_cycle::3       393224      1.32%     99.47% # Number of insts commited each cycle
system.cpu0.commit.committed_per_cycle::4        59465      0.20%     99.67% # Number of insts commited each cycle
system.cpu0.commit.committed_per_cycle::5        35434      0.12%     99.79% # Number of insts commited each cycle
system.cpu0.commit.committed_per_cycle::6         5884      0.02%     99.81% # Number of insts commited each cycle
system.cpu0.commit.committed_per_cycle::7         4316      0.01%     99.82% # Number of insts commited each cycle
system.cpu0.commit.committed_per_cycle::8        52639      0.18%    100.00% # Number of insts commited each cycle
system.cpu0.commit.committed_per_cycle::overflows            0      0.00%    100.00% # Number of insts commited each cycle
system.cpu0.commit.committed_per_cycle::min_value            0                       # Number of insts commited each cycle
system.cpu0.commit.committed_per_cycle::max_value            8                       # Number of insts commited each cycle
system.cpu0.commit.committed_per_cycle::total     29900387                       # Number of insts commited each cycle
system.cpu0.commit.committedInsts             1486837                       # Number of instructions committed
system.cpu0.commit.committedOps               2968896                       # Number of ops (including micro ops) committed
system.cpu0.commit.swp_count                        0                       # Number of s/w prefetches committed
system.cpu0.commit.refs                        588163                       # Number of memory references committed
system.cpu0.commit.loads                       556877                       # Number of loads committed
system.cpu0.commit.membars                          0                       # Number of memory barriers committed
system.cpu0.commit.branches                    533612                       # Number of branches committed
system.cpu0.commit.vec_insts                        0                       # Number of committed Vector instructions.
system.cpu0.commit.fp_insts                     12538                       # Number of committed floating point instructions.
system.cpu0.commit.int_insts                  2956185                       # Number of committed integer instructions.
system.cpu0.commit.function_calls                5525                       # Number of function calls committed.
system.cpu0.commit.op_class_0::No_OpClass         3817      0.13%      0.13% # Class of committed instruction
system.cpu0.commit.op_class_0::IntAlu         2356678     79.38%     79.51% # Class of committed instruction
system.cpu0.commit.op_class_0::IntMult            221      0.01%     79.51% # Class of committed instruction
system.cpu0.commit.op_class_0::IntDiv            9301      0.31%     79.83% # Class of committed instruction
system.cpu0.commit.op_class_0::FloatAdd         10716      0.36%     80.19% # Class of committed instruction
system.cpu0.commit.op_class_0::FloatCmp             0      0.00%     80.19% # Class of committed instruction
system.cpu0.commit.op_class_0::FloatCvt             0      0.00%     80.19% # Class of committed instruction
system.cpu0.commit.op_class_0::FloatMult            0      0.00%     80.19% # Class of committed instruction
system.cpu0.commit.op_class_0::FloatMultAcc            0      0.00%     80.19% # Class of committed instruction
system.cpu0.commit.op_class_0::FloatDiv             0      0.00%     80.19% # Class of committed instruction
system.cpu0.commit.op_class_0::FloatMisc            0      0.00%     80.19% # Class of committed instruction
system.cpu0.commit.op_class_0::FloatSqrt            0      0.00%     80.19% # Class of committed instruction
system.cpu0.commit.op_class_0::SimdAdd              0      0.00%     80.19% # Class of committed instruction
system.cpu0.commit.op_class_0::SimdAddAcc            0      0.00%     80.19% # Class of committed instruction
system.cpu0.commit.op_class_0::SimdAlu              0      0.00%     80.19% # Class of committed instruction
system.cpu0.commit.op_class_0::SimdCmp              0      0.00%     80.19% # Class of committed instruction
system.cpu0.commit.op_class_0::SimdCvt              0      0.00%     80.19% # Class of committed instruction
system.cpu0.commit.op_class_0::SimdMisc             0      0.00%     80.19% # Class of committed instruction
system.cpu0.commit.op_class_0::SimdMult             0      0.00%     80.19% # Class of committed instruction
system.cpu0.commit.op_class_0::SimdMultAcc            0      0.00%     80.19% # Class of committed instruction
system.cpu0.commit.op_class_0::SimdShift            0      0.00%     80.19% # Class of committed instruction
system.cpu0.commit.op_class_0::SimdShiftAcc            0      0.00%     80.19% # Class of committed instruction
system.cpu0.commit.op_class_0::SimdSqrt             0      0.00%     80.19% # Class of committed instruction
system.cpu0.commit.op_class_0::SimdFloatAdd            0      0.00%     80.19% # Class of committed instruction
system.cpu0.commit.op_class_0::SimdFloatAlu            0      0.00%     80.19% # Class of committed instruction
system.cpu0.commit.op_class_0::SimdFloatCmp            0      0.00%     80.19% # Class of committed instruction
system.cpu0.commit.op_class_0::SimdFloatCvt            0      0.00%     80.19% # Class of committed instruction
system.cpu0.commit.op_class_0::SimdFloatDiv            0      0.00%     80.19% # Class of committed instruction
system.cpu0.commit.op_class_0::SimdFloatMisc            0      0.00%     80.19% # Class of committed instruction
system.cpu0.commit.op_class_0::SimdFloatMult            0      0.00%     80.19% # Class of committed instruction
system.cpu0.commit.op_class_0::SimdFloatMultAcc            0      0.00%     80.19% # Class of committed instruction
system.cpu0.commit.op_class_0::SimdFloatSqrt            0      0.00%     80.19% # Class of committed instruction
system.cpu0.commit.op_class_0::MemRead         555055     18.70%     98.88% # Class of committed instruction
system.cpu0.commit.op_class_0::MemWrite         31286      1.05%     99.94% # Class of committed instruction
system.cpu0.commit.op_class_0::FloatMemRead         1822      0.06%    100.00% # Class of committed instruction
system.cpu0.commit.op_class_0::FloatMemWrite            0      0.00%    100.00% # Class of committed instruction
system.cpu0.commit.op_class_0::IprAccess            0      0.00%    100.00% # Class of committed instruction
system.cpu0.commit.op_class_0::InstPrefetch            0      0.00%    100.00% # Class of committed instruction
system.cpu0.commit.op_class_0::total          2968896                       # Class of committed instruction
system.cpu0.commit.bw_lim_events                52639                       # number cycles where commit BW limit reached
system.cpu0.rob.rob_reads                    37032428                       # The number of ROB reads
system.cpu0.rob.rob_writes                   14962712                       # The number of ROB writes
system.cpu0.timesIdled                            357                       # Number of times that the entire CPU went into an idle state and unscheduled itself
system.cpu0.idleCycles                          42541                       # Total number of cycles that the CPU has spent unscheduled due to idling
system.cpu0.committedInsts                    1486837                       # Number of Instructions Simulated
system.cpu0.committedOps                      2968896                       # Number of Ops (including micro ops) Simulated
system.cpu0.cpi                             20.536675                       # CPI: Cycles Per Instruction
system.cpu0.cpi_total                       20.536675                       # CPI: Total CPI of All Threads
system.cpu0.ipc                              0.048693                       # IPC: Instructions Per Cycle
system.cpu0.ipc_total                        0.048693                       # IPC: Total IPC of All Threads
system.cpu0.int_regfile_reads                 5255302                       # number of integer regfile reads
system.cpu0.int_regfile_writes                4374727                       # number of integer regfile writes
system.cpu0.fp_regfile_reads                    28570                       # number of floating regfile reads
system.cpu0.fp_regfile_writes                   14268                       # number of floating regfile writes
system.cpu0.cc_regfile_reads                  3449532                       # number of cc regfile reads
system.cpu0.cc_regfile_writes                 1450962                       # number of cc regfile writes
system.cpu0.misc_regfile_reads                2735637                       # number of misc regfile reads
system.cpu0.dcache.tags.pwrStateResidencyTicks::UNDEFINED  15267344125                       # Cumulative time (in ticks) in various power states
system.cpu0.dcache.tags.replacements           293548                       # number of replacements
system.cpu0.dcache.tags.tagsinuse                1024                       # Cycle average of tags in use
system.cpu0.dcache.tags.total_refs             309802                       # Total number of references to valid blocks.
system.cpu0.dcache.tags.sampled_refs           293548                       # Sample count of references to valid blocks.
system.cpu0.dcache.tags.avg_refs             1.055371                       # Average number of references to valid blocks.
system.cpu0.dcache.tags.warmup_cycle                0                       # Cycle when the warmup percentage was hit.
system.cpu0.dcache.tags.occ_blocks::cpu0.data         1024                       # Average occupied blocks per requestor
system.cpu0.dcache.tags.occ_percent::cpu0.data            1                       # Average percentage of cache occupancy
system.cpu0.dcache.tags.occ_percent::total            1                       # Average percentage of cache occupancy
system.cpu0.dcache.tags.occ_task_id_blocks::1024         1024                       # Occupied blocks per task id
system.cpu0.dcache.tags.age_task_id_blocks_1024::0          218                       # Occupied blocks per task id
system.cpu0.dcache.tags.age_task_id_blocks_1024::1          771                       # Occupied blocks per task id
system.cpu0.dcache.tags.age_task_id_blocks_1024::2           35                       # Occupied blocks per task id
system.cpu0.dcache.tags.occ_task_id_percent::1024            1                       # Percentage of cache occupancy per task id
system.cpu0.dcache.tags.tag_accesses          3566700                       # Number of tag accesses
system.cpu0.dcache.tags.data_accesses         3566700                       # Number of data accesses
system.cpu0.dcache.pwrStateResidencyTicks::UNDEFINED  15267344125                       # Cumulative time (in ticks) in various power states
system.cpu0.dcache.ReadReq_hits::cpu0.data       279632                       # number of ReadReq hits
system.cpu0.dcache.ReadReq_hits::total         279632                       # number of ReadReq hits
system.cpu0.dcache.WriteReq_hits::cpu0.data        30123                       # number of WriteReq hits
system.cpu0.dcache.WriteReq_hits::total         30123                       # number of WriteReq hits
system.cpu0.dcache.demand_hits::cpu0.data       309755                       # number of demand (read+write) hits
system.cpu0.dcache.demand_hits::total          309755                       # number of demand (read+write) hits
system.cpu0.dcache.overall_hits::cpu0.data       309755                       # number of overall hits
system.cpu0.dcache.overall_hits::total         309755                       # number of overall hits
system.cpu0.dcache.ReadReq_misses::cpu0.data       507370                       # number of ReadReq misses
system.cpu0.dcache.ReadReq_misses::total       507370                       # number of ReadReq misses
system.cpu0.dcache.WriteReq_misses::cpu0.data         1163                       # number of WriteReq misses
system.cpu0.dcache.WriteReq_misses::total         1163                       # number of WriteReq misses
system.cpu0.dcache.demand_misses::cpu0.data       508533                       # number of demand (read+write) misses
system.cpu0.dcache.demand_misses::total        508533                       # number of demand (read+write) misses
system.cpu0.dcache.overall_misses::cpu0.data       508533                       # number of overall misses
system.cpu0.dcache.overall_misses::total       508533                       # number of overall misses
system.cpu0.dcache.ReadReq_miss_latency::cpu0.data  33604667000                       # number of ReadReq miss cycles
system.cpu0.dcache.ReadReq_miss_latency::total  33604667000                       # number of ReadReq miss cycles
system.cpu0.dcache.WriteReq_miss_latency::cpu0.data     45599999                       # number of WriteReq miss cycles
system.cpu0.dcache.WriteReq_miss_latency::total     45599999                       # number of WriteReq miss cycles
system.cpu0.dcache.demand_miss_latency::cpu0.data  33650266999                       # number of demand (read+write) miss cycles
system.cpu0.dcache.demand_miss_latency::total  33650266999                       # number of demand (read+write) miss cycles
system.cpu0.dcache.overall_miss_latency::cpu0.data  33650266999                       # number of overall miss cycles
system.cpu0.dcache.overall_miss_latency::total  33650266999                       # number of overall miss cycles
system.cpu0.dcache.ReadReq_accesses::cpu0.data       787002                       # number of ReadReq accesses(hits+misses)
system.cpu0.dcache.ReadReq_accesses::total       787002                       # number of ReadReq accesses(hits+misses)
system.cpu0.dcache.WriteReq_accesses::cpu0.data        31286                       # number of WriteReq accesses(hits+misses)
system.cpu0.dcache.WriteReq_accesses::total        31286                       # number of WriteReq accesses(hits+misses)
system.cpu0.dcache.demand_accesses::cpu0.data       818288                       # number of demand (read+write) accesses
system.cpu0.dcache.demand_accesses::total       818288                       # number of demand (read+write) accesses
system.cpu0.dcache.overall_accesses::cpu0.data       818288                       # number of overall (read+write) accesses
system.cpu0.dcache.overall_accesses::total       818288                       # number of overall (read+write) accesses
system.cpu0.dcache.ReadReq_miss_rate::cpu0.data     0.644687                       # miss rate for ReadReq accesses
system.cpu0.dcache.ReadReq_miss_rate::total     0.644687                       # miss rate for ReadReq accesses
system.cpu0.dcache.WriteReq_miss_rate::cpu0.data     0.037173                       # miss rate for WriteReq accesses
system.cpu0.dcache.WriteReq_miss_rate::total     0.037173                       # miss rate for WriteReq accesses
system.cpu0.dcache.demand_miss_rate::cpu0.data     0.621460                       # miss rate for demand accesses
system.cpu0.dcache.demand_miss_rate::total     0.621460                       # miss rate for demand accesses
system.cpu0.dcache.overall_miss_rate::cpu0.data     0.621460                       # miss rate for overall accesses
system.cpu0.dcache.overall_miss_rate::total     0.621460                       # miss rate for overall accesses
system.cpu0.dcache.ReadReq_avg_miss_latency::cpu0.data 66233.058715                       # average ReadReq miss latency
system.cpu0.dcache.ReadReq_avg_miss_latency::total 66233.058715                       # average ReadReq miss latency
system.cpu0.dcache.WriteReq_avg_miss_latency::cpu0.data 39208.941531                       # average WriteReq miss latency
system.cpu0.dcache.WriteReq_avg_miss_latency::total 39208.941531                       # average WriteReq miss latency
system.cpu0.dcache.demand_avg_miss_latency::cpu0.data 66171.255354                       # average overall miss latency
system.cpu0.dcache.demand_avg_miss_latency::total 66171.255354                       # average overall miss latency
system.cpu0.dcache.overall_avg_miss_latency::cpu0.data 66171.255354                       # average overall miss latency
[...]
system.l2.ReadSharedReq_hits::cpu0.data        110997                       # number of ReadSharedReq hits
system.l2.ReadSharedReq_hits::total            110997                       # number of ReadSharedReq hits
system.l2.demand_hits::cpu0.data               111855                       # number of demand (read+write) hits
system.l2.demand_hits::total                   111855                       # number of demand (read+write) hits
system.l2.overall_hits::cpu0.data              111855                       # number of overall hits
system.l2.overall_hits::total                  111855                       # number of overall hits
system.l2.ReadExReq_misses::cpu0.data             295                       # number of ReadExReq misses
system.l2.ReadExReq_misses::total                 295                       # number of ReadExReq misses
system.l2.ReadSharedReq_misses::cpu0.data       181399                       # number of ReadSharedReq misses
system.l2.ReadSharedReq_misses::total          181399                       # number of ReadSharedReq misses
system.l2.demand_misses::cpu0.data             181694                       # number of demand (read+write) misses
system.l2.demand_misses::total                 181694                       # number of demand (read+write) misses
system.l2.overall_misses::cpu0.data            181694                       # number of overall misses
system.l2.overall_misses::total                181694                       # number of overall misses
system.l2.ReadExReq_miss_latency::cpu0.data     32834500                       # number of ReadExReq miss cycles
system.l2.ReadExReq_miss_latency::total      32834500                       # number of ReadExReq miss cycles
system.l2.ReadSharedReq_miss_latency::cpu0.data  17299176000                       # number of ReadSharedReq miss cycles
system.l2.ReadSharedReq_miss_latency::total  17299176000                       # number of ReadSharedReq miss cycles
system.l2.demand_miss_latency::cpu0.data  17332010500                       # number of demand (read+write) miss cycles
system.l2.demand_miss_latency::total      17332010500                       # number of demand (read+write) miss cycles
system.l2.overall_miss_latency::cpu0.data  17332010500                       # number of overall miss cycles
system.l2.overall_miss_latency::total     17332010500                       # number of overall miss cycles
system.l2.WritebackDirty_accesses::writebacks         3165                       # number of WritebackDirty accesses(hits+misses)
system.l2.WritebackDirty_accesses::total         3165                       # number of WritebackDirty accesses(hits+misses)
system.l2.ReadExReq_accesses::cpu0.data          1153                       # number of ReadExReq accesses(hits+misses)
system.l2.ReadExReq_accesses::total              1153                       # number of ReadExReq accesses(hits+misses)
system.l2.ReadSharedReq_accesses::cpu0.data       292396                       # number of ReadSharedReq accesses(hits+misses)
system.l2.ReadSharedReq_accesses::total        292396                       # number of ReadSharedReq accesses(hits+misses)
system.l2.demand_accesses::cpu0.data           293549                       # number of demand (read+write) accesses
system.l2.demand_accesses::total               293549                       # number of demand (read+write) accesses
system.l2.overall_accesses::cpu0.data          293549                       # number of overall (read+write) accesses
system.l2.overall_accesses::total              293549                       # number of overall (read+write) accesses
system.l2.ReadExReq_miss_rate::cpu0.data     0.255854                       # miss rate for ReadExReq accesses
system.l2.ReadExReq_miss_rate::total         0.255854                       # miss rate for ReadExReq accesses
system.l2.ReadSharedReq_miss_rate::cpu0.data     0.620388                       # miss rate for ReadSharedReq accesses
system.l2.ReadSharedReq_miss_rate::total     0.620388                       # miss rate for ReadSharedReq accesses
system.l2.demand_miss_rate::cpu0.data        0.618956                       # miss rate for demand accesses
system.l2.demand_miss_rate::total            0.618956                       # miss rate for demand accesses
system.l2.overall_miss_rate::cpu0.data       0.618956                       # miss rate for overall accesses
system.l2.overall_miss_rate::total           0.618956                       # miss rate for overall accesses
system.l2.ReadExReq_avg_miss_latency::cpu0.data 111303.389831                       # average ReadExReq miss latency
system.l2.ReadExReq_avg_miss_latency::total 111303.389831                       # average ReadExReq miss latency
system.l2.ReadSharedReq_avg_miss_latency::cpu0.data 95365.332775                       # average ReadSharedReq miss latency
system.l2.ReadSharedReq_avg_miss_latency::total 95365.332775                       # average ReadSharedReq miss latency
system.l2.demand_avg_miss_latency::cpu0.data 95391.209946                       # average overall miss latency
system.l2.demand_avg_miss_latency::total 95391.209946                       # average overall miss latency
system.l2.overall_avg_miss_latency::cpu0.data 95391.209946                       # average overall miss latency
system.l2.overall_avg_miss_latency::total 95391.209946                       # average overall miss latency
system.l2.blocked_cycles::no_mshrs                  0                       # number of cycles access was blocked
system.l2.blocked_cycles::no_targets                0                       # number of cycles access was blocked
system.l2.blocked::no_mshrs                         0                       # number of cycles access was blocked
system.l2.blocked::no_targets                       0                       # number of cycles access was blocked
system.l2.avg_blocked_cycles::no_mshrs            nan                       # average number of cycles each access was blocked
system.l2.avg_blocked_cycles::no_targets          nan                       # average number of cycles each access was blocked
system.l2.writebacks::writebacks                  422                       # number of writebacks
system.l2.writebacks::total                       422                       # number of writebacks
system.l2.ReadExReq_mshr_misses::cpu0.data          295                       # number of ReadExReq MSHR misses
system.l2.ReadExReq_mshr_misses::total            295                       # number of ReadExReq MSHR misses
system.l2.ReadSharedReq_mshr_misses::cpu0.data       181399                       # number of ReadSharedReq MSHR misses
system.l2.ReadSharedReq_mshr_misses::total       181399                       # number of ReadSharedReq MSHR misses
system.l2.demand_mshr_misses::cpu0.data        181694                       # number of demand (read+write) MSHR misses
system.l2.demand_mshr_misses::total            181694                       # number of demand (read+write) MSHR misses
system.l2.overall_mshr_misses::cpu0.data       181694                       # number of overall MSHR misses
system.l2.overall_mshr_misses::total           181694                       # number of overall MSHR misses
system.l2.ReadExReq_mshr_miss_latency::cpu0.data     29884500                       # number of ReadExReq MSHR miss cycles
system.l2.ReadExReq_mshr_miss_latency::total     29884500                       # number of ReadExReq MSHR miss cycles
system.l2.ReadSharedReq_mshr_miss_latency::cpu0.data  15485196000                       # number of ReadSharedReq MSHR miss cycles
system.l2.ReadSharedReq_mshr_miss_latency::total  15485196000                       # number of ReadSharedReq MSHR miss cycles
system.l2.demand_mshr_miss_latency::cpu0.data  15515080500                       # number of demand (read+write) MSHR miss cycles
system.l2.demand_mshr_miss_latency::total  15515080500                       # number of demand (read+write) MSHR miss cycles
system.l2.overall_mshr_miss_latency::cpu0.data  15515080500                       # number of overall MSHR miss cycles
system.l2.overall_mshr_miss_latency::total  15515080500                       # number of overall MSHR miss cycles
system.l2.ReadExReq_mshr_miss_rate::cpu0.data     0.255854                       # mshr miss rate for ReadExReq accesses
system.l2.ReadExReq_mshr_miss_rate::total     0.255854                       # mshr miss rate for ReadExReq accesses
system.l2.ReadSharedReq_mshr_miss_rate::cpu0.data     0.620388                       # mshr miss rate for ReadSharedReq accesses
system.l2.ReadSharedReq_mshr_miss_rate::total     0.620388                       # mshr miss rate for ReadSharedReq accesses
system.l2.demand_mshr_miss_rate::cpu0.data     0.618956                       # mshr miss rate for demand accesses
system.l2.demand_mshr_miss_rate::total       0.618956                       # mshr miss rate for demand accesses
system.l2.overall_mshr_miss_rate::cpu0.data     0.618956                       # mshr miss rate for overall accesses
system.l2.overall_mshr_miss_rate::total      0.618956                       # mshr miss rate for overall accesses
system.l2.ReadExReq_avg_mshr_miss_latency::cpu0.data 101303.389831                       # average ReadExReq mshr miss latency
system.l2.ReadExReq_avg_mshr_miss_latency::total 101303.389831                       # average ReadExReq mshr miss latency
system.l2.ReadSharedReq_avg_mshr_miss_latency::cpu0.data 85365.387902                       # average ReadSharedReq mshr miss latency
system.l2.ReadSharedReq_avg_mshr_miss_latency::total 85365.387902                       # average ReadSharedReq mshr miss latency
system.l2.demand_avg_mshr_miss_latency::cpu0.data 85391.264984                       # average overall mshr miss latency
system.l2.demand_avg_mshr_miss_latency::total 85391.264984                       # average overall mshr miss latency
system.l2.overall_avg_mshr_miss_latency::cpu0.data 85391.264984                       # average overall mshr miss latency
system.l2.overall_avg_mshr_miss_latency::total 85391.264984                       # average overall mshr miss latency
system.membus.snoop_filter.tot_requests        363385                       # Total number of requests made to the snoop filter.
system.membus.snoop_filter.hit_single_requests       181694                       # Number of requests hitting in the snoop filter with a single holder of the requested data.
system.membus.snoop_filter.hit_multi_requests            0                       # Number of requests hitting in the snoop filter with multiple (>1) holders of the requested data.
system.membus.snoop_filter.tot_snoops               0                       # Total number of snoops made to the snoop filter.
system.membus.snoop_filter.hit_single_snoops            0                       # Number of snoops hitting in the snoop filter with a single holder of the requested data.
system.membus.snoop_filter.hit_multi_snoops            0                       # Number of snoops hitting in the snoop filter with multiple (>1) holders of the requested data.
system.membus.pwrStateResidencyTicks::UNDEFINED  15267344125                       # Cumulative time (in ticks) in various power states
system.membus.trans_dist::ReadResp             181398                       # Transaction distribution
system.membus.trans_dist::WritebackDirty          422                       # Transaction distribution
system.membus.trans_dist::CleanEvict           181269                       # Transaction distribution
system.membus.trans_dist::ReadExReq               295                       # Transaction distribution
system.membus.trans_dist::ReadExResp              295                       # Transaction distribution
system.membus.trans_dist::ReadSharedReq        181399                       # Transaction distribution
system.membus.pkt_count_system.l2.mem_side::system.mem_ctrls.port       545078                       # Packet count per connected master and slave (bytes)
system.membus.pkt_count_system.l2.mem_side::total       545078                       # Packet count per connected master and slave (bytes)
system.membus.pkt_count::total                 545078                       # Packet count per connected master and slave (bytes)
system.membus.pkt_size_system.l2.mem_side::system.mem_ctrls.port     11655360                       # Cumulative packet size per connected master and slave (bytes)
system.membus.pkt_size_system.l2.mem_side::total     11655360                       # Cumulative packet size per connected master and slave (bytes)
system.membus.pkt_size::total                11655360                       # Cumulative packet size per connected master and slave (bytes)
system.membus.snoops                                0                       # Total snoops (count)
system.membus.snoopTraffic                          0                       # Total snoop traffic (bytes)
system.membus.snoop_fanout::samples            181694                       # Request fanout histogram
system.membus.snoop_fanout::mean                    0                       # Request fanout histogram
system.membus.snoop_fanout::stdev                   0                       # Request fanout histogram
system.membus.snoop_fanout::underflows              0      0.00%      0.00% # Request fanout histogram
system.membus.snoop_fanout::0                  181694    100.00%    100.00% # Request fanout histogram
system.membus.snoop_fanout::1                       0      0.00%    100.00% # Request fanout histogram
system.membus.snoop_fanout::overflows               0      0.00%    100.00% # Request fanout histogram
system.membus.snoop_fanout::min_value               0                       # Request fanout histogram
system.membus.snoop_fanout::max_value               0                       # Request fanout histogram
system.membus.snoop_fanout::total              181694                       # Request fanout histogram
system.membus.reqLayer8.occupancy           428302000                       # Layer occupancy (ticks)
system.membus.reqLayer8.utilization               2.8                       # Layer utilization (%)
system.membus.respLayer1.occupancy          985281000                       # Layer occupancy (ticks)
system.membus.respLayer1.utilization              6.5                       # Layer utilization (%)
system.tol2bus.snoop_filter.tot_requests       587097                       # Total number of requests made to the snoop filter.
system.tol2bus.snoop_filter.hit_single_requests       293550                       # Number of requests hitting in the snoop filter with a single holder of the requested data.
system.tol2bus.snoop_filter.hit_multi_requests          450                       # Number of requests hitting in the snoop filter with multiple (>1) holders of the requested data.
system.tol2bus.snoop_filter.tot_snoops              2                       # Total number of snoops made to the snoop filter.
system.tol2bus.snoop_filter.hit_single_snoops            2                       # Number of snoops hitting in the snoop filter with a single holder of the requested data.
system.tol2bus.snoop_filter.hit_multi_snoops            0                       # Number of snoops hitting in the snoop filter with multiple (>1) holders of the requested data.
system.tol2bus.pwrStateResidencyTicks::UNDEFINED  15267344125                       # Cumulative time (in ticks) in various power states
system.tol2bus.trans_dist::ReadResp            292395                       # Transaction distribution
system.tol2bus.trans_dist::WritebackDirty         3587                       # Transaction distribution
system.tol2bus.trans_dist::CleanEvict          471654                       # Transaction distribution
system.tol2bus.trans_dist::ReadExReq             1153                       # Transaction distribution
system.tol2bus.trans_dist::ReadExResp            1153                       # Transaction distribution
system.tol2bus.trans_dist::ReadSharedReq       292396                       # Transaction distribution
system.tol2bus.pkt_count_system.cpu0.dcache.mem_side::system.l2.cpu_side       880645                       # Packet count per connected master and slave (bytes)
system.tol2bus.pkt_count::total                880645                       # Packet count per connected master and slave (bytes)
system.tol2bus.pkt_size_system.cpu0.dcache.mem_side::system.l2.cpu_side     18989632                       # Cumulative packet size per connected master and slave (bytes)
system.tol2bus.pkt_size::total               18989632                       # Cumulative packet size per connected master and slave (bytes)
system.tol2bus.snoops                          181693                       # Total snoops (count)
system.tol2bus.snoopTraffic                     27008                       # Total snoop traffic (bytes)
system.tol2bus.snoop_fanout::samples           475242                       # Request fanout histogram
system.tol2bus.snoop_fanout::mean            0.000955                       # Request fanout histogram
system.tol2bus.snoop_fanout::stdev           0.030893                       # Request fanout histogram
system.tol2bus.snoop_fanout::underflows             0      0.00%      0.00% # Request fanout histogram
system.tol2bus.snoop_fanout::0                 474788     99.90%     99.90% # Request fanout histogram
system.tol2bus.snoop_fanout::1                    454      0.10%    100.00% # Request fanout histogram
system.tol2bus.snoop_fanout::2                      0      0.00%    100.00% # Request fanout histogram
system.tol2bus.snoop_fanout::3                      0      0.00%    100.00% # Request fanout histogram
system.tol2bus.snoop_fanout::4                      0      0.00%    100.00% # Request fanout histogram
system.tol2bus.snoop_fanout::5                      0      0.00%    100.00% # Request fanout histogram
system.tol2bus.snoop_fanout::6                      0      0.00%    100.00% # Request fanout histogram
system.tol2bus.snoop_fanout::7                      0      0.00%    100.00% # Request fanout histogram
system.tol2bus.snoop_fanout::8                      0      0.00%    100.00% # Request fanout histogram
system.tol2bus.snoop_fanout::9                      0      0.00%    100.00% # Request fanout histogram
system.tol2bus.snoop_fanout::10                     0      0.00%    100.00% # Request fanout histogram
system.tol2bus.snoop_fanout::11                     0      0.00%    100.00% # Request fanout histogram
system.tol2bus.snoop_fanout::12                     0      0.00%    100.00% # Request fanout histogram
system.tol2bus.snoop_fanout::13                     0      0.00%    100.00% # Request fanout histogram
system.tol2bus.snoop_fanout::14                     0      0.00%    100.00% # Request fanout histogram
system.tol2bus.snoop_fanout::15                     0      0.00%    100.00% # Request fanout histogram
system.tol2bus.snoop_fanout::16                     0      0.00%    100.00% # Request fanout histogram
system.tol2bus.snoop_fanout::overflows              0      0.00%    100.00% # Request fanout histogram
system.tol2bus.snoop_fanout::min_value              0                       # Request fanout histogram
system.tol2bus.snoop_fanout::max_value              1                       # Request fanout histogram
system.tol2bus.snoop_fanout::total             475242                       # Request fanout histogram
system.tol2bus.reqLayer0.occupancy          296713500                       # Layer occupancy (ticks)
system.tol2bus.reqLayer0.utilization              1.9                       # Layer utilization (%)
system.tol2bus.respLayer1.occupancy         440322000                       # Layer occupancy (ticks)
system.tol2bus.respLayer1.utilization             2.9                       # Layer utilization (%)

---------- End Simulation Statistics   ----------
