
---------- Begin Simulation Statistics ----------
sim_seconds                                  0.015267                       # Number of seconds simulated
sim_ticks                                 15267344125                       # Number of ticks simulated
final_tick                               3419885084000                       # Number of ticks from beginning of simulation (restored from checkpoints and never reset)
sim_freq                                 1000000000000                       # Frequency of simulated ticks
host_inst_rate                               96908653                       # Simulator instruction rate (inst/s)
host_op_rate                                179728861                       # Simulator op (including micro ops) rate (op/s)
host_tick_rate                              262195085                       # Simulator tick rate (ticks/s)
host_mem_usage                                2332680                       # Number of bytes of host memory used
host_seconds                                    58.23                       # Real time elapsed on the host
sim_insts                                  5642887206                       # Number of instructions simulated
sim_ops                                   10465420993                       # Number of ops (including micro ops) simulated
system.voltage_domain.voltage                       1                       # Voltage in Volts
system.clk_domain.clock                          1000                       # Clock period in ticks
system.mem_ctrls.pwrStateResidencyTicks::UNDEFINED  15267344125                       # Cumulative time (in ticks) in various power states
system.mem_ctrls.bytes_read::cpu0.inst             64                       # Number of bytes read from this memory
system.mem_ctrls.bytes_read::cpu0.data       10630976                       # Number of bytes read from this memory
system.mem_ctrls.bytes_read::total           10631040                       # Number of bytes read from this memory
system.mem_ctrls.bytes_inst_read::cpu0.inst           64                       # Number of instructions bytes read from this memory
system.mem_ctrls.bytes_inst_read::total            64                       # Number of instructions bytes read from this memory
system.mem_ctrls.bytes_written::writebacks        41536                       # Number of bytes written to this memory
system.mem_ctrls.bytes_written::total           41536                       # Number of bytes written to this memory
system.mem_ctrls.num_reads::cpu0.inst               1                       # Number of read requests responded to by this memory
system.mem_ctrls.num_reads::cpu0.data          166109                       # Number of read requests responded to by this memory
system.mem_ctrls.num_reads::total              166110                       # Number of read requests responded to by this memory
system.mem_ctrls.num_writes::writebacks           649                       # Number of write requests responded to by this memory
system.mem_ctrls.num_writes::total                649                       # Number of write requests responded to by this memory
system.mem_ctrls.bw_read::cpu0.inst              4192                       # Total read bandwidth from this memory (bytes/s)
system.mem_ctrls.bw_read::cpu0.data         696321240                       # Total read bandwidth from this memory (bytes/s)
system.mem_ctrls.bw_read::total             696325432                       # Total read bandwidth from this memory (bytes/s)
system.mem_ctrls.bw_inst_read::cpu0.inst         4192                       # Instruction read bandwidth from this memory (bytes/s)
system.mem_ctrls.bw_inst_read::total             4192                       # Instruction read bandwidth from this memory (bytes/s)
system.mem_ctrls.bw_write::writebacks         2720578                       # Write bandwidth from this memory (bytes/s)
system.mem_ctrls.bw_write::total              2720578                       # Write bandwidth from this memory (bytes/s)
system.mem_ctrls.bw_total::writebacks         2720578                       # Total bandwidth to/from this memory (bytes/s)
system.mem_ctrls.bw_total::cpu0.inst             4192                       # Total bandwidth to/from this memory (bytes/s)
system.mem_ctrls.bw_total::cpu0.data        696321240                       # Total bandwidth to/from this memory (bytes/s)
system.mem_ctrls.bw_total::total            699046010                       # Total bandwidth to/from this memory (bytes/s)
system.mem_ctrls.readReqs                      166111                       # Number of read requests accepted
system.mem_ctrls.writeReqs                        649                       # Number of write requests accepted
system.mem_ctrls.readBursts                    166111                       # Number of DRAM read bursts, including those serviced by the write queue
system.mem_ctrls.writeBursts                      649                       # Number of DRAM write bursts, including those merged in the write queue
system.mem_ctrls.bytesReadDRAM               10624448                       # Total number of bytes read from DRAM
system.mem_ctrls.bytesReadWrQ                    6656                       # Total number of bytes read from write queue
system.mem_ctrls.bytesWritten                   41088                       # Total number of bytes written to DRAM
system.mem_ctrls.bytesReadSys                10631104                       # Total read bytes from the system interface side
system.mem_ctrls.bytesWrittenSys                41536                       # Total written bytes from the system interface side
system.mem_ctrls.servicedByWrQ                    104                       # Number of DRAM read bursts serviced by the write queue
system.mem_ctrls.mergedWrBursts                     0                       # Number of DRAM write bursts merged with an existing one
system.mem_ctrls.neitherReadNorWriteReqs            0                       # Number of requests that are neither read nor write
system.mem_ctrls.perBankRdBursts::0             10491                       # Per bank write bursts
system.mem_ctrls.perBankRdBursts::1             10313                       # Per bank write bursts
system.mem_ctrls.perBankRdBursts::2             10355                       # Per bank write bursts
system.mem_ctrls.perBankRdBursts::3             10120                       # Per bank write bursts
system.mem_ctrls.perBankRdBursts::4              9845                       # Per bank write bursts
system.mem_ctrls.perBankRdBursts::5             10042                       # Per bank write bursts
system.mem_ctrls.perBankRdBursts::6              9790                       # Per bank write bursts
system.mem_ctrls.perBankRdBursts::7             10107                       # Per bank write bursts
system.mem_ctrls.perBankRdBursts::8             10139                       # Per bank write bursts
system.mem_ctrls.perBankRdBursts::9             10059                       # Per bank write bursts
system.mem_ctrls.perBankRdBursts::10            10118                       # Per bank write bursts
system.mem_ctrls.perBankRdBursts::11            10205                       # Per bank write bursts
system.mem_ctrls.perBankRdBursts::12            11549                       # Per bank write bursts
system.mem_ctrls.perBankRdBursts::13            11171                       # Per bank write bursts
system.mem_ctrls.perBankRdBursts::14            10992                       # Per bank write bursts
system.mem_ctrls.perBankRdBursts::15            10711                       # Per bank write bursts
system.mem_ctrls.perBankWrBursts::0               125                       # Per bank write bursts
system.mem_ctrls.perBankWrBursts::1               113                       # Per bank write bursts
system.mem_ctrls.perBankWrBursts::2                72                       # Per bank write bursts
system.mem_ctrls.perBankWrBursts::3                19                       # Per bank write bursts
system.mem_ctrls.perBankWrBursts::4                 0                       # Per bank write bursts
system.mem_ctrls.perBankWrBursts::5                 0                       # Per bank write bursts
system.mem_ctrls.perBankWrBursts::6                45                       # Per bank write bursts
system.mem_ctrls.perBankWrBursts::7                 0                       # Per bank write bursts
system.mem_ctrls.perBankWrBursts::8                25                       # Per bank write bursts
system.mem_ctrls.perBankWrBursts::9                 0                       # Per bank write bursts
system.mem_ctrls.perBankWrBursts::10                0                       # Per bank write bursts
system.mem_ctrls.perBankWrBursts::11                1                       # Per bank write bursts
system.mem_ctrls.perBankWrBursts::12              106                       # Per bank write bursts
system.mem_ctrls.perBankWrBursts::13                0                       # Per bank write bursts
system.mem_ctrls.perBankWrBursts::14               23                       # Per bank write bursts
system.mem_ctrls.perBankWrBursts::15              113                       # Per bank write bursts
system.mem_ctrls.numRdRetry                         0                       # Number of times read queue was full causing retry
system.mem_ctrls.numWrRetry                         0                       # Number of times write queue was full causing retry
system.mem_ctrls.totGap                   15267387500                       # Total gap between requests
system.mem_ctrls.readPktSize::0                     0                       # Read request sizes (log2)
system.mem_ctrls.readPktSize::1                     0                       # Read request sizes (log2)
system.mem_ctrls.readPktSize::2                     0                       # Read request sizes (log2)
system.mem_ctrls.readPktSize::3                     0                       # Read request sizes (log2)
system.mem_ctrls.readPktSize::4                     0                       # Read request sizes (log2)
system.mem_ctrls.readPktSize::5                     0                       # Read request sizes (log2)
system.mem_ctrls.readPktSize::6                166111                       # Read request sizes (log2)
system.mem_ctrls.writePktSize::0                    0                       # Write request sizes (log2)
system.mem_ctrls.writePktSize::1                    0                       # Write request sizes (log2)
system.mem_ctrls.writePktSize::2                    0                       # Write request sizes (log2)
system.mem_ctrls.writePktSize::3                    0                       # Write request sizes (log2)
system.mem_ctrls.writePktSize::4                    0                       # Write request sizes (log2)
system.mem_ctrls.writePktSize::5                    0                       # Write request sizes (log2)
system.mem_ctrls.writePktSize::6                  649                       # Write request sizes (log2)
system.mem_ctrls.rdQLenPdf::0                  128069                       # What read queue length does an incoming req see
system.mem_ctrls.rdQLenPdf::1                   35265                       # What read queue length does an incoming req see
system.mem_ctrls.rdQLenPdf::2                    2594                       # What read queue length does an incoming req see
system.mem_ctrls.rdQLenPdf::3                      79                       # What read queue length does an incoming req see
system.mem_ctrls.rdQLenPdf::4                       0                       # What read queue length does an incoming req see
system.mem_ctrls.rdQLenPdf::5                       0                       # What read queue length does an incoming req see
system.mem_ctrls.rdQLenPdf::6                       0                       # What read queue length does an incoming req see
system.mem_ctrls.rdQLenPdf::7                       0                       # What read queue length does an incoming req see
system.mem_ctrls.rdQLenPdf::8                       0                       # What read queue length does an incoming req see
system.mem_ctrls.rdQLenPdf::9                       0                       # What read queue length does an incoming req see
system.mem_ctrls.rdQLenPdf::10                      0                       # What read queue length does an incoming req see
system.mem_ctrls.rdQLenPdf::11                      0                       # What read queue length does an incoming req see
system.mem_ctrls.rdQLenPdf::12                      0                       # What read queue length does an incoming req see
system.mem_ctrls.rdQLenPdf::13                      0                       # What read queue length does an incoming req see
system.mem_ctrls.rdQLenPdf::14                      0                       # What read queue length does an incoming req see
system.mem_ctrls.rdQLenPdf::15                      0                       # What read queue length does an incoming req see
system.mem_ctrls.rdQLenPdf::16                      0                       # What read queue length does an incoming req see
system.mem_ctrls.rdQLenPdf::17                      0                       # What read queue length does an incoming req see
system.mem_ctrls.rdQLenPdf::18                      0                       # What read queue length does an incoming req see
system.mem_ctrls.rdQLenPdf::19                      0                       # What read queue length does an incoming req see
system.mem_ctrls.rdQLenPdf::20                      0                       # What read queue length does an incoming req see
system.mem_ctrls.rdQLenPdf::21                      0                       # What read queue length does an incoming req see
system.mem_ctrls.rdQLenPdf::22                      0                       # What read queue length does an incoming req see
system.mem_ctrls.rdQLenPdf::23                      0                       # What read queue length does an incoming req see
system.mem_ctrls.rdQLenPdf::24                      0                       # What read queue length does an incoming req see
system.mem_ctrls.rdQLenPdf::25                      0                       # What read queue length does an incoming req see
system.mem_ctrls.rdQLenPdf::26                      0                       # What read queue length does an incoming req see
system.mem_ctrls.rdQLenPdf::27                      0                       # What read queue length does an incoming req see
system.mem_ctrls.rdQLenPdf::28                      0                       # What read queue length does an incoming req see
system.mem_ctrls.rdQLenPdf::29                      0                       # What read queue length does an incoming req see
system.mem_ctrls.rdQLenPdf::30                      0                       # What read queue length does an incoming req see
system.mem_ctrls.rdQLenPdf::31                      0                       # What read queue length does an incoming req see
system.mem_ctrls.wrQLenPdf::0                       0                       # What write queue length does an incoming req see
system.mem_ctrls.wrQLenPdf::1                       0                       # What write queue length does an incoming req see
system.mem_ctrls.wrQLenPdf::2                       0                       # What write queue length does an incoming req see
system.mem_ctrls.wrQLenPdf::3                       0                       # What write queue length does an incoming req see
system.mem_ctrls.wrQLenPdf::4                       0                       # What write queue length does an incoming req see
system.mem_ctrls.wrQLenPdf::5                       0                       # What write queue length does an incoming req see
system.mem_ctrls.wrQLenPdf::6                       0                       # What write queue length does an incoming req see
system.mem_ctrls.wrQLenPdf::7                       0                       # What write queue length does an incoming req see
system.mem_ctrls.wrQLenPdf::8                       0                       # What write queue length does an incoming req see
system.mem_ctrls.wrQLenPdf::9                       0                       # What write queue length does an incoming req see
system.mem_ctrls.wrQLenPdf::10                      0                       # What write queue length does an incoming req see
system.mem_ctrls.wrQLenPdf::11                      0                       # What write queue length does an incoming req see
system.mem_ctrls.wrQLenPdf::12                      0                       # What write queue length does an incoming req see
system.mem_ctrls.wrQLenPdf::13                      0                       # What write queue length does an incoming req see
system.mem_ctrls.wrQLenPdf::14                      0                       # What write queue length does an incoming req see
system.mem_ctrls.wrQLenPdf::15                      1                       # What write queue length does an incoming req see
system.mem_ctrls.wrQLenPdf::16                      1                       # What write queue length does an incoming req see
system.mem_ctrls.wrQLenPdf::17                     40                       # What write queue length does an incoming req see
system.mem_ctrls.wrQLenPdf::18                     40                       # What write queue length does an incoming req see
system.mem_ctrls.wrQLenPdf::19                     40                       # What write queue length does an incoming req see
system.mem_ctrls.wrQLenPdf::20                     40                       # What write queue length does an incoming req see
system.mem_ctrls.wrQLenPdf::21                     41                       # What write queue length does an incoming req see
system.mem_ctrls.wrQLenPdf::22                     41                       # What write queue length does an incoming req see
system.mem_ctrls.wrQLenPdf::23                     41                       # What write queue length does an incoming req see
system.mem_ctrls.wrQLenPdf::24                     41                       # What write queue length does an incoming req see
system.mem_ctrls.wrQLenPdf::25                     41                       # What write queue length does an incoming req see
system.mem_ctrls.wrQLenPdf::26                     41                       # What write queue length does an incoming req see
system.mem_ctrls.wrQLenPdf::27                     41                       # What write queue length does an incoming req see
system.mem_ctrls.wrQLenPdf::28                     40                       # What write queue length does an incoming req see
system.mem_ctrls.wrQLenPdf::29                     40                       # What write queue length does an incoming req see
system.mem_ctrls.wrQLenPdf::30                     40                       # What write queue length does an incoming req see
system.mem_ctrls.wrQLenPdf::31                     40                       # What write queue length does an incoming req see
system.mem_ctrls.wrQLenPdf::32                     40                       # What write queue length does an incoming req see
system.mem_ctrls.wrQLenPdf::33                      0                       # What write queue length does an incoming req see
system.mem_ctrls.wrQLenPdf::34                      0                       # What write queue length does an incoming req see
system.mem_ctrls.wrQLenPdf::35                      0                       # What write queue length does an incoming req see
system.mem_ctrls.wrQLenPdf::36                      0                       # What write queue length does an incoming req see
system.mem_ctrls.wrQLenPdf::37                      0                       # What write queue length does an incoming req see
system.mem_ctrls.wrQLenPdf::38                      0                       # What write queue length does an incoming req see
system.mem_ctrls.wrQLenPdf::39                      0                       # What write queue length does an incoming req see
system.mem_ctrls.wrQLenPdf::40                      0                       # What write queue length does an incoming req see
system.mem_ctrls.wrQLenPdf::41                      0                       # What write queue length does an incoming req see
system.mem_ctrls.wrQLenPdf::42                      0                       # What write queue length does an incoming req see
system.mem_ctrls.wrQLenPdf::43                      0                       # What write queue length does an incoming req see
system.mem_ctrls.wrQLenPdf::44                      0                       # What write queue length does an incoming req see
system.mem_ctrls.wrQLenPdf::45                      0                       # What write queue length does an incoming req see
system.mem_ctrls.wrQLenPdf::46                      0                       # What write queue length does an incoming req see
system.mem_ctrls.wrQLenPdf::47                      0                       # What write queue length does an incoming req see
system.mem_ctrls.wrQLenPdf::48                      0                       # What write queue length does an incoming req see
system.mem_ctrls.wrQLenPdf::49                      0                       # What write queue length does an incoming req see
system.mem_ctrls.wrQLenPdf::50                      0                       # What write queue length does an incoming req see
system.mem_ctrls.wrQLenPdf::51                      0                       # What write queue length does an incoming req see
system.mem_ctrls.wrQLenPdf::52                      0                       # What write queue length does an incoming req see
system.mem_ctrls.wrQLenPdf::53                      0                       # What write queue length does an incoming req see
system.mem_ctrls.wrQLenPdf::54                      0                       # What write queue length does an incoming req see
system.mem_ctrls.wrQLenPdf::55                      0                       # What write queue length does an incoming req see
system.mem_ctrls.wrQLenPdf::56                      0                       # What write queue length does an incoming req see
system.mem_ctrls.wrQLenPdf::57                      0                       # What write queue length does an incoming req see
system.mem_ctrls.wrQLenPdf::58                      0                       # What write queue length does an incoming req see
system.mem_ctrls.wrQLenPdf::59                      0                       # What write queue length does an incoming req see
system.mem_ctrls.wrQLenPdf::60                      0                       # What write queue length does an incoming req see
system.mem_ctrls.wrQLenPdf::61                      0                       # What write queue length does an incoming req see
system.mem_ctrls.wrQLenPdf::62                      0                       # What write queue length does an incoming req see
system.mem_ctrls.wrQLenPdf::63                      0                       # What write queue length does an incoming req see
system.mem_ctrls.bytesPerActivate::samples        93582                       # Bytes accessed per row activation
system.mem_ctrls.bytesPerActivate::mean    113.980210                       # Bytes accessed per row activation
system.mem_ctrls.bytesPerActivate::gmean    98.848623                       # Bytes accessed per row activation
system.mem_ctrls.bytesPerActivate::stdev    68.948308                       # Bytes accessed per row activation
system.mem_ctrls.bytesPerActivate::0-127        49589     52.99%     52.99% # Bytes accessed per row activation
system.mem_ctrls.bytesPerActivate::128-255        36931     39.46%     92.45% # Bytes accessed per row activation
system.mem_ctrls.bytesPerActivate::256-383         6272      6.70%     99.16% # Bytes accessed per row activation
system.mem_ctrls.bytesPerActivate::384-511          702      0.75%     99.91% # Bytes accessed per row activation
system.mem_ctrls.bytesPerActivate::512-639           62      0.07%     99.97% # Bytes accessed per row activation
system.mem_ctrls.bytesPerActivate::640-767            9      0.01%     99.98% # Bytes accessed per row activation
system.mem_ctrls.bytesPerActivate::768-895            6      0.01%     99.99% # Bytes accessed per row activation
system.mem_ctrls.bytesPerActivate::896-1023            3      0.00%     99.99% # Bytes accessed per row activation
system.mem_ctrls.bytesPerActivate::1024-1151            8      0.01%    100.00% # Bytes accessed per row activation
system.mem_ctrls.bytesPerActivate::total        93582                       # Bytes accessed per row activation
system.mem_ctrls.rdPerTurnAround::samples           40                       # Reads before turning the bus around for writes
system.mem_ctrls.rdPerTurnAround::mean    4108.550000                       # Reads before turning the bus around for writes
system.mem_ctrls.rdPerTurnAround::gmean   3958.190680                       # Reads before turning the bus around for writes
system.mem_ctrls.rdPerTurnAround::stdev   1103.703903                       # Reads before turning the bus around for writes
system.mem_ctrls.rdPerTurnAround::1792-2047            1      2.50%      2.50% # Reads before turning the bus around for writes
system.mem_ctrls.rdPerTurnAround::2304-2559            1      2.50%      5.00% # Reads before turning the bus around for writes
system.mem_ctrls.rdPerTurnAround::2560-2815            5     12.50%     17.50% # Reads before turning the bus around for writes
system.mem_ctrls.rdPerTurnAround::2816-3071            1      2.50%     20.00% # Reads before turning the bus around for writes
system.mem_ctrls.rdPerTurnAround::3328-3583            3      7.50%     27.50% # Reads before turning the bus around for writes
system.mem_ctrls.rdPerTurnAround::3584-3839            2      5.00%     32.50% # Reads before turning the bus around for writes
system.mem_ctrls.rdPerTurnAround::3840-4095            7     17.50%     50.00% # Reads before turning the bus around for writes
system.mem_ctrls.rdPerTurnAround::4096-4351            6     15.00%     65.00% # Reads before turning the bus around for writes
system.mem_ctrls.rdPerTurnAround::4352-4607            3      7.50%     72.50% # Reads before turning the bus around for writes
system.mem_ctrls.rdPerTurnAround::4608-4863            4     10.00%     82.50% # Reads before turning the bus around for writes
system.mem_ctrls.rdPerTurnAround::4864-5119            1      2.50%     85.00% # Reads before turning the bus around for writes
system.mem_ctrls.rdPerTurnAround::5120-5375            1      2.50%     87.50% # Reads before turning the bus around for writes
system.mem_ctrls.rdPerTurnAround::5376-5631            1      2.50%     90.00% # Reads before turning the bus around for writes
system.mem_ctrls.rdPerTurnAround::5632-5887            1      2.50%     92.50% # Reads before turning the bus around for writes
system.mem_ctrls.rdPerTurnAround::6144-6399            1      2.50%     95.00% # Reads before turning the bus around for writes
system.mem_ctrls.rdPerTurnAround::6400-6655            2      5.00%    100.00% # Reads before turning the bus around for writes
system.mem_ctrls.rdPerTurnAround::total            40                       # Reads before turning the bus around for writes
system.mem_ctrls.wrPerTurnAround::samples           40                       # Writes before turning the bus around for reads
system.mem_ctrls.wrPerTurnAround::mean      16.050000                       # Writes before turning the bus around for reads
system.mem_ctrls.wrPerTurnAround::gmean     16.047183                       # Writes before turning the bus around for reads
system.mem_ctrls.wrPerTurnAround::stdev      0.316228                       # Writes before turning the bus around for reads
system.mem_ctrls.wrPerTurnAround::16               39     97.50%     97.50% # Writes before turning the bus around for reads
system.mem_ctrls.wrPerTurnAround::18                1      2.50%    100.00% # Writes before turning the bus around for reads
system.mem_ctrls.wrPerTurnAround::total            40                       # Writes before turning the bus around for reads
system.mem_ctrls.totQLat                   4248085750                       # Total ticks spent queuing
system.mem_ctrls.totMemAccLat              7360717000                       # Total ticks spent from burst creation until serviced by the DRAM
system.mem_ctrls.totBusLat                  830035000                       # Total ticks spent in databus transfers
system.mem_ctrls.avgQLat                     25589.80                       # Average queueing delay per DRAM burst
system.mem_ctrls.avgBusLat                    5000.00                       # Average bus latency per DRAM burst
system.mem_ctrls.avgMemAccLat                44339.80                       # Average memory access latency per DRAM burst
system.mem_ctrls.avgRdBW                       695.89                       # Average DRAM read bandwidth in MiByte/s
system.mem_ctrls.avgWrBW                         2.69                       # Average achieved write bandwidth in MiByte/s
system.mem_ctrls.avgRdBWSys                    696.33                       # Average system read bandwidth in MiByte/s
system.mem_ctrls.avgWrBWSys                      2.72                       # Average system write bandwidth in MiByte/s
system.mem_ctrls.peakBW                      12800.00                       # Theoretical peak bandwidth in MiByte/s
system.mem_ctrls.busUtil                         5.46                       # Data bus utilization in percentage
system.mem_ctrls.busUtilRead                     5.44                       # Data bus utilization in percentage for reads
system.mem_ctrls.busUtilWrite                    0.02                       # Data bus utilization in percentage for writes
system.mem_ctrls.avgRdQLen                       1.27                       # Average read queue length when enqueuing
system.mem_ctrls.avgWrQLen                      25.62                       # Average write queue length when enqueuing
system.mem_ctrls.readRowHits                    72529                       # Number of row buffer hits during reads
system.mem_ctrls.writeRowHits                     541                       # Number of row buffer hits during writes
system.mem_ctrls.readRowHitRate                 43.69                       # Row buffer hit rate for reads
system.mem_ctrls.writeRowHitRate                83.36                       # Row buffer hit rate for writes
system.mem_ctrls.avgGap                      91553.06                       # Average gap between requests
system.mem_ctrls.pageHitRate                    43.84                       # Row buffer hit rate, read and write combined
system.mem_ctrls_0.actEnergy                327775980                       # Energy for activate commands per rank (pJ)
system.mem_ctrls_0.preEnergy                174228450                       # Energy for precharge commands per rank (pJ)
system.mem_ctrls_0.readEnergy               578789820                       # Energy for read commands per rank (pJ)
system.mem_ctrls_0.writeEnergy                1952280                       # Energy for write commands per rank (pJ)
system.mem_ctrls_0.refreshEnergy         1206538320.000000                       # Energy for refresh commands per rank (pJ)
system.mem_ctrls_0.actBackEnergy           1457370300                       # Energy for active background per rank (pJ)
system.mem_ctrls_0.preBackEnergy             25020000                       # Energy for precharge background per rank (pJ)
system.mem_ctrls_0.actPowerDownEnergy      5298929190                       # Energy for active power-down per rank (pJ)
system.mem_ctrls_0.prePowerDownEnergy       147610080                       # Energy for precharge power-down per rank (pJ)
system.mem_ctrls_0.selfRefreshEnergy     1426380.000000                       # Energy for self refresh per rank (pJ)
system.mem_ctrls_0.totalEnergy             9219646080                       # Total energy per rank (pJ)
system.mem_ctrls_0.averagePower            603.880151                       # Core power per rank (mW)
system.mem_ctrls_0.totalIdleTime          12006837125                       # Total Idle time Per DRAM Rank
system.mem_ctrls_0.memoryStateTime::IDLE     10342750                       # Time in different power states
system.mem_ctrls_0.memoryStateTime::REF     510398000                       # Time in different power states
system.mem_ctrls_0.memoryStateTime::SREF      1328000                       # Time in different power states
system.mem_ctrls_0.memoryStateTime::PRE_PDN    384329250                       # Time in different power states
system.mem_ctrls_0.memoryStateTime::ACT    2739766250                       # Time in different power states
system.mem_ctrls_0.memoryStateTime::ACT_PDN  11621179875                       # Time in different power states
system.mem_ctrls_1.actEnergy                340378080                       # Energy for activate commands per rank (pJ)
system.mem_ctrls_1.preEnergy                180915240                       # Energy for precharge commands per rank (pJ)
system.mem_ctrls_1.readEnergy               606500160                       # Energy for read commands per rank (pJ)
system.mem_ctrls_1.writeEnergy                1398960                       # Energy for write commands per rank (pJ)
system.mem_ctrls_1.refreshEnergy         1205923680.000000                       # Energy for refresh commands per rank (pJ)
system.mem_ctrls_1.actBackEnergy           1508425770                       # Energy for active background per rank (pJ)
system.mem_ctrls_1.preBackEnergy             24929760                       # Energy for precharge background per rank (pJ)
system.mem_ctrls_1.actPowerDownEnergy      5247441090                       # Energy for active power-down per rank (pJ)
system.mem_ctrls_1.prePowerDownEnergy       146576640                       # Energy for precharge power-down per rank (pJ)
system.mem_ctrls_1.selfRefreshEnergy          2356380                       # Energy for self refresh per rank (pJ)
system.mem_ctrls_1.totalEnergy             9264845760                       # Total energy per rank (pJ)
system.mem_ctrls_1.averagePower            606.840698                       # Core power per rank (mW)
system.mem_ctrls_1.totalIdleTime          11892765625                       # Total Idle time Per DRAM Rank
system.mem_ctrls_1.memoryStateTime::IDLE     10255500                       # Time in different power states
system.mem_ctrls_1.memoryStateTime::REF     510132000                       # Time in different power states
system.mem_ctrls_1.memoryStateTime::SREF      5215000                       # Time in different power states
system.mem_ctrls_1.memoryStateTime::PRE_PDN    381358250                       # Time in different power states
system.mem_ctrls_1.memoryStateTime::ACT    2853986250                       # Time in different power states
system.mem_ctrls_1.memoryStateTime::ACT_PDN  11506397125                       # Time in different power states
system.pwrStateResidencyTicks::UNDEFINED  15267344125                       # Cumulative time (in ticks) in various power states
system.cpu0.branchPred.lookups                2481548                       # Number of BP lookups
system.cpu0.branchPred.condPredicted          2481548                       # Number of conditional branches predicted
system.cpu0.branchPred.condIncorrect           114061                       # Number of conditional branches incorrect
system.cpu0.branchPred.BTBLookups             1965145                       # Number of BTB lookups
system.cpu0.branchPred.BTBHits                      0                       # Number of BTB hits
system.cpu0.branchPred.BTBCorrect                   0                       # Number of correct BTB predictions (this stat may not work properly.
system.cpu0.branchPred.BTBHitPct             0.000000                       # BTB Hit Percentage
system.cpu0.branchPred.usedRAS                  82530                       # Number of times the RAS was used to get a target.
system.cpu0.branchPred.RASInCorrect             12424                       # Number of incorrect RAS predictions.
system.cpu0.branchPred.indirectLookups        1965145                       # Number of indirect predictor lookups.
system.cpu0.branchPred.indirectHits           1033503                       # Number of indirect target hits.
system.cpu0.branchPred.indirectMisses          931642                       # Number of indirect misses.
system.cpu0.branchPredindirectMispredicted        40702                       # Number of mispredicted indirect branches.
system.cpu_voltage_domain.voltage                   1                       # Voltage in Volts
system.cpu_clk_domain.clock                       500                       # Clock period in ticks
system.cpu0.dtb.walker.pwrStateResidencyTicks::UNDEFINED  15267344125                       # Cumulative time (in ticks) in various power states
system.cpu0.dtb.rdAccesses                    1203755                       # TLB accesses on read requests
system.cpu0.dtb.wrAccesses                     101113                       # TLB accesses on write requests
system.cpu0.dtb.rdMisses                       233077                       # TLB misses on read requests
system.cpu0.dtb.wrMisses                         1642                       # TLB misses on write requests
system.cpu0.apic_clk_domain.clock                8000                       # Clock period in ticks
system.cpu0.interrupts.pwrStateResidencyTicks::UNDEFINED  15267344125                       # Cumulative time (in ticks) in various power states
system.cpu0.itb.walker.pwrStateResidencyTicks::UNDEFINED  15267344125                       # Cumulative time (in ticks) in various power states
system.cpu0.itb.rdAccesses                          0                       # TLB accesses on read requests
system.cpu0.itb.wrAccesses                    2033198                       # TLB accesses on write requests
system.cpu0.itb.rdMisses                            0                       # TLB misses on read requests
system.cpu0.itb.wrMisses                         8050                       # TLB misses on write requests
system.cpu0.workload.numSyscalls                    0                       # Number of system calls
system.cpu0.pwrStateResidencyTicks::ON    15267344125                       # Cumulative time (in ticks) in various power states
system.cpu0.numCycles                        30534689                       # number of cpu cycles simulated
system.cpu0.numWorkItemsStarted                     0                       # number of work items this cpu started
system.cpu0.numWorkItemsCompleted                   0                       # number of work items this cpu completed
system.cpu0.fetch.icacheStallCycles           2085090                       # Number of cycles fetch is stalled on an Icache miss
system.cpu0.fetch.Insts                       7371588                       # Number of instructions fetch has processed
system.cpu0.fetch.Branches                    2481548                       # Number of branches that fetch encountered
system.cpu0.fetch.predictedBranches           1116033                       # Number of branches that fetch has predicted taken
system.cpu0.fetch.Cycles                     28214642                       # Number of cycles fetch has run and was not squashing or blocked
system.cpu0.fetch.SquashCycles                 233272                       # Number of cycles fetch has spent squashing
system.cpu0.fetch.TlbCycles                      1799                       # Number of cycles fetch has spent waiting for tlb
system.cpu0.fetch.MiscStallCycles                1876                       # Number of cycles fetch has spent waiting on interrupts, or bad addresses, or out of MSHRs
system.cpu0.fetch.PendingTrapStallCycles        66514                       # Number of stall cycles due to pending traps
system.cpu0.fetch.PendingQuiesceStallCycles            3                       # Number of stall cycles due to pending quiesce instructions
system.cpu0.fetch.CacheLines                  2025148                       # Number of cache lines fetched
system.cpu0.fetch.IcacheSquashes                17157                       # Number of outstanding Icache misses that were squashed
system.cpu0.fetch.ItlbSquashes                     10                       # Number of outstanding ITLB misses that were squashed
system.cpu0.fetch.rateDist::samples          30486560                       # Number of instructions fetched each cycle (Total)
system.cpu0.fetch.rateDist::mean             0.486970                       # Number of instructions fetched each cycle (Total)
system.cpu0.fetch.rateDist::stdev            1.740334                       # Number of instructions fetched each cycle (Total)
system.cpu0.fetch.rateDist::underflows              0      0.00%      0.00% # Number of instructions fetched each cycle (Total)
system.cpu0.fetch.rateDist::0                27663813     90.74%     90.74% # Number of instructions fetched each cycle (Total)
system.cpu0.fetch.rateDist::1                   38228      0.13%     90.87% # Number of instructions fetched each cycle (Total)
system.cpu0.fetch.rateDist::2                  971090      3.19%     94.05% # Number of instructions fetched each cycle (Total)
system.cpu0.fetch.rateDist::3                   48121      0.16%     94.21% # Number of instructions fetched each cycle (Total)
system.cpu0.fetch.rateDist::4                  196124      0.64%     94.85% # Number of instructions fetched each cycle (Total)
system.cpu0.fetch.rateDist::5                  106198      0.35%     95.20% # Number of instructions fetched each cycle (Total)
system.cpu0.fetch.rateDist::6                  128875      0.42%     95.62% # Number of instructions fetched each cycle (Total)
system.cpu0.fetch.rateDist::7                   40342      0.13%     95.76% # Number of instructions fetched each cycle (Total)
system.cpu0.fetch.rateDist::8                 1293769      4.24%    100.00% # Number of instructions fetched each cycle (Total)
system.cpu0.fetch.rateDist::overflows               0      0.00%    100.00% # Number of instructions fetched each cycle (Total)
system.cpu0.fetch.rateDist::min_value               0                       # Number of instructions fetched each cycle (Total)
system.cpu0.fetch.rateDist::max_value               8                       # Number of instructions fetched each cycle (Total)
system.cpu0.fetch.rateDist::total            30486560                       # Number of instructions fetched each cycle (Total)
system.cpu0.fetch.branchRate                 0.081270                       # Number of branch fetches per cycle
system.cpu0.fetch.rate                       0.241417                       # Number of inst fetches per cycle
system.cpu0.decode.IdleCycles                 1087573                       # Number of cycles decode is idle
system.cpu0.decode.BlockedCycles             27376954                       # Number of cycles decode is blocked
system.cpu0.decode.RunCycles                  1450876                       # Number of cycles decode is running
system.cpu0.decode.UnblockCycles               454521                       # Number of cycles decode is unblocking
system.cpu0.decode.SquashCycles                116636                       # Number of cycles decode is squashing
system.cpu0.decode.DecodedInsts              12370527                       # Number of instructions handled by decode
system.cpu0.rename.SquashCycles                116636                       # Number of cycles rename is squashing
system.cpu0.rename.IdleCycles                 1244494                       # Number of cycles rename is idle
system.cpu0.rename.BlockCycles               25696410                       # Number of cycles rename is blocking
system.cpu0.rename.serializeStallCycles         28425                       # count of cycles rename stalled for serializing inst
system.cpu0.rename.RunCycles                  1646729                       # Number of cycles rename is running
system.cpu0.rename.UnblockCycles              1753866                       # Number of cycles rename is unblocking
system.cpu0.rename.RenamedInsts              11841623                       # Number of instructions processed by rename
system.cpu0.rename.ROBFullEvents                82871                       # Number of times rename has blocked due to ROB full
system.cpu0.rename.IQFullEvents               1407199                       # Number of times rename has blocked due to IQ full
system.cpu0.rename.LQFullEvents                274100                       # Number of times rename has blocked due to LQ full
system.cpu0.rename.SQFullEvents                  1219                       # Number of times rename has blocked due to SQ full
system.cpu0.rename.RenamedOperands           14086799                       # Number of destination operands rename has renamed
system.cpu0.rename.RenameLookups             32740562                       # Number of register rename lookups that rename has made
system.cpu0.rename.int_rename_lookups        15705336                       # Number of integer rename lookups
system.cpu0.rename.fp_rename_lookups            73646                       # Number of floating rename lookups
system.cpu0.rename.CommittedMaps              4963766                       # Number of HB maps that are committed
system.cpu0.rename.UndoneMaps                 9123034                       # Number of HB maps that are undone due to squashing
system.cpu0.rename.serializingInsts               429                       # count of serializing insts renamed
system.cpu0.rename.tempSerializingInsts           529                       # count of temporary serializing insts renamed
system.cpu0.rename.skidInsts                  2790917                       # count of insts added to the skid buffer
system.cpu0.memDep0.insertedLoads             2086030                       # Number of loads inserted to the mem dependence unit.
system.cpu0.memDep0.insertedStores             146279                       # Number of stores inserted to the mem dependence unit.
system.cpu0.memDep0.conflictingLoads             8355                       # Number of conflicting loads.
system.cpu0.memDep0.conflictingStores            8272                       # Number of conflicting stores.
system.cpu0.iq.iqInstsAdded                  11152570                       # Number of instructions added to the IQ (excludes non-spec)
system.cpu0.iq.iqNonSpecInstsAdded               8275                       # Number of non-speculative instructions added to the IQ
system.cpu0.iq.iqInstsIssued                  8054019                       # Number of instructions issued
system.cpu0.iq.iqSquashedInstsIssued            11649                       # Number of squashed instructions issued
system.cpu0.iq.iqSquashedInstsExamined        7023825                       # Number of squashed instructions iterated over during squash; mainly for profiling
system.cpu0.iq.iqSquashedOperandsExamined     14299045                       # Number of squashed operands that are examined and possibly removed from graph
system.cpu0.iq.iqSquashedNonSpecRemoved          8275                       # Number of squashed non-spec instructions that were removed
system.cpu0.iq.issued_per_cycle::samples     30486560                       # Number of insts issued each cycle
system.cpu0.iq.issued_per_cycle::mean        0.264183                       # Number of insts issued each cycle
system.cpu0.iq.issued_per_cycle::stdev       0.946870                       # Number of insts issued each cycle
system.cpu0.iq.issued_per_cycle::underflows            0      0.00%      0.00% # Number of insts issued each cycle
system.cpu0.iq.issued_per_cycle::0           27343935     89.69%     89.69% # Number of insts issued each cycle
system.cpu0.iq.issued_per_cycle::1            1162475      3.81%     93.50% # Number of insts issued each cycle
system.cpu0.iq.issued_per_cycle::2             657586      2.16%     95.66% # Number of insts issued each cycle
system.cpu0.iq.issued_per_cycle::3             452461      1.48%     97.15% # Number of insts issued each cycle
system.cpu0.iq.issued_per_cycle::4             480932      1.58%     98.72% # Number of insts issued each cycle
system.cpu0.iq.issued_per_cycle::5             166731      0.55%     99.27% # Number of insts issued each cycle
system.cpu0.iq.issued_per_cycle::6             132634      0.44%     99.71% # Number of insts issued each cycle
system.cpu0.iq.issued_per_cycle::7              52646      0.17%     99.88% # Number of insts issued each cycle
system.cpu0.iq.issued_per_cycle::8              37160      0.12%    100.00% # Number of insts issued each cycle
system.cpu0.iq.issued_per_cycle::overflows            0      0.00%    100.00% # Number of insts issued each cycle
system.cpu0.iq.issued_per_cycle::min_value            0                       # Number of insts issued each cycle
system.cpu0.iq.issued_per_cycle::max_value            8                       # Number of insts issued each cycle
system.cpu0.iq.issued_per_cycle::total       30486560                       # Number of insts issued each cycle
system.cpu0.iq.fu_full::No_OpClass                  0      0.00%      0.00% # attempts to use FU when none available
system.cpu0.iq.fu_full::IntAlu                  22031     72.24%     72.24% # attempts to use FU when none available
system.cpu0.iq.fu_full::IntMult                     0      0.00%     72.24% # attempts to use FU when none available
system.cpu0.iq.fu_full::IntDiv                      0      0.00%     72.24% # attempts to use FU when none available
system.cpu0.iq.fu_full::FloatAdd                 2096      6.87%     79.11% # attempts to use FU when none available
system.cpu0.iq.fu_full::FloatCmp                    0      0.00%     79.11% # attempts to use FU when none available
system.cpu0.iq.fu_full::FloatCvt                    0      0.00%     79.11% # attempts to use FU when none available
system.cpu0.iq.fu_full::FloatMult                   0      0.00%     79.11% # attempts to use FU when none available
system.cpu0.iq.fu_full::FloatMultAcc                0      0.00%     79.11% # attempts to use FU when none available
system.cpu0.iq.fu_full::FloatDiv                    0      0.00%     79.11% # attempts to use FU when none available
system.cpu0.iq.fu_full::FloatMisc                   0      0.00%     79.11% # attempts to use FU when none available
system.cpu0.iq.fu_full::FloatSqrt                   0      0.00%     79.11% # attempts to use FU when none available
system.cpu0.iq.fu_full::SimdAdd                     0      0.00%     79.11% # attempts to use FU when none available
system.cpu0.iq.fu_full::SimdAddAcc                  0      0.00%     79.11% # attempts to use FU when none available
system.cpu0.iq.fu_full::SimdAlu                     0      0.00%     79.11% # attempts to use FU when none available
system.cpu0.iq.fu_full::SimdCmp                     0      0.00%     79.11% # attempts to use FU when none available
system.cpu0.iq.fu_full::SimdCvt                     0      0.00%     79.11% # attempts to use FU when none available
system.cpu0.iq.fu_full::SimdMisc                    0      0.00%     79.11% # attempts to use FU when none available
system.cpu0.iq.fu_full::SimdMult                    0      0.00%     79.11% # attempts to use FU when none available
system.cpu0.iq.fu_full::SimdMultAcc                 0      0.00%     79.11% # attempts to use FU when none available
system.cpu0.iq.fu_full::SimdShift                   0      0.00%     79.11% # attempts to use FU when none available
system.cpu0.iq.fu_full::SimdShiftAcc                0      0.00%     79.11% # attempts to use FU when none available
system.cpu0.iq.fu_full::SimdSqrt                    0      0.00%     79.11% # attempts to use FU when none available
system.cpu0.iq.fu_full::SimdFloatAdd                0      0.00%     79.11% # attempts to use FU when none available
system.cpu0.iq.fu_full::SimdFloatAlu                0      0.00%     79.11% # attempts to use FU when none available
system.cpu0.iq.fu_full::SimdFloatCmp                0      0.00%     79.11% # attempts to use FU when none available
system.cpu0.iq.fu_full::SimdFloatCvt                0      0.00%     79.11% # attempts to use FU when none available
system.cpu0.iq.fu_full::SimdFloatDiv                0      0.00%     79.11% # attempts to use FU when none available
system.cpu0.iq.fu_full::SimdFloatMisc               0      0.00%     79.11% # attempts to use FU when none available
system.cpu0.iq.fu_full::SimdFloatMult               0      0.00%     79.11% # attempts to use FU when none available
system.cpu0.iq.fu_full::SimdFloatMultAcc            0      0.00%     79.11% # attempts to use FU when none available
system.cpu0.iq.fu_full::SimdFloatSqrt               0      0.00%     79.11% # attempts to use FU when none available
system.cpu0.iq.fu_full::MemRead                  5523     18.11%     97.22% # attempts to use FU when none available
system.cpu0.iq.fu_full::MemWrite                  500      1.64%     98.86% # attempts to use FU when none available
system.cpu0.iq.fu_full::FloatMemRead              305      1.00%     99.86% # attempts to use FU when none available
system.cpu0.iq.fu_full::FloatMemWrite              43      0.14%    100.00% # attempts to use FU when none available
system.cpu0.iq.fu_full::IprAccess                   0      0.00%    100.00% # attempts to use FU when none available
system.cpu0.iq.fu_full::InstPrefetch                0      0.00%    100.00% # attempts to use FU when none available
system.cpu0.iq.FU_type_0::No_OpClass            31954      0.40%      0.40% # Type of FU issued
system.cpu0.iq.FU_type_0::IntAlu              6596206     81.90%     82.30% # Type of FU issued
system.cpu0.iq.FU_type_0::IntMult                1936      0.02%     82.32% # Type of FU issued
system.cpu0.iq.FU_type_0::IntDiv                19531      0.24%     82.56% # Type of FU issued
system.cpu0.iq.FU_type_0::FloatAdd              26424      0.33%     82.89% # Type of FU issued
system.cpu0.iq.FU_type_0::FloatCmp                  0      0.00%     82.89% # Type of FU issued
system.cpu0.iq.FU_type_0::FloatCvt                  0      0.00%     82.89% # Type of FU issued
system.cpu0.iq.FU_type_0::FloatMult                 0      0.00%     82.89% # Type of FU issued
system.cpu0.iq.FU_type_0::FloatMultAcc              0      0.00%     82.89% # Type of FU issued
system.cpu0.iq.FU_type_0::FloatDiv                  0      0.00%     82.89% # Type of FU issued
system.cpu0.iq.FU_type_0::FloatMisc                 0      0.00%     82.89% # Type of FU issued
system.cpu0.iq.FU_type_0::FloatSqrt                 0      0.00%     82.89% # Type of FU issued
system.cpu0.iq.FU_type_0::SimdAdd                   0      0.00%     82.89% # Type of FU issued
system.cpu0.iq.FU_type_0::SimdAddAcc                0      0.00%     82.89% # Type of FU issued
system.cpu0.iq.FU_type_0::SimdAlu                   0      0.00%     82.89% # Type of FU issued
system.cpu0.iq.FU_type_0::SimdCmp                   0      0.00%     82.89% # Type of FU issued
system.cpu0.iq.FU_type_0::SimdCvt                   0      0.00%     82.89% # Type of FU issued
system.cpu0.iq.FU_type_0::SimdMisc                  0      0.00%     82.89% # Type of FU issued
system.cpu0.iq.FU_type_0::SimdMult                  0      0.00%     82.89% # Type of FU issued
system.cpu0.iq.FU_type_0::SimdMultAcc               0      0.00%     82.89% # Type of FU issued
system.cpu0.iq.FU_type_0::SimdShift                 0      0.00%     82.89% # Type of FU issued
system.cpu0.iq.FU_type_0::SimdShiftAcc              0      0.00%     82.89% # Type of FU issued
system.cpu0.iq.FU_type_0::SimdSqrt                  0      0.00%     82.89% # Type of FU issued
system.cpu0.iq.FU_type_0::SimdFloatAdd              0      0.00%     82.89% # Type of FU issued
system.cpu0.iq.FU_type_0::SimdFloatAlu              0      0.00%     82.89% # Type of FU issued
system.cpu0.iq.FU_type_0::SimdFloatCmp              0      0.00%     82.89% # Type of FU issued
system.cpu0.iq.FU_type_0::SimdFloatCvt              0      0.00%     82.89% # Type of FU issued
system.cpu0.iq.FU_type_0::SimdFloatDiv              0      0.00%     82.89% # Type of FU issued
system.cpu0.iq.FU_type_0::SimdFloatMisc             0      0.00%     82.89% # Type of FU issued
system.cpu0.iq.FU_type_0::SimdFloatMult             0      0.00%     82.89% # Type of FU issued
system.cpu0.iq.FU_type_0::SimdFloatMultAcc            0      0.00%     82.89% # Type of FU issued
system.cpu0.iq.FU_type_0::SimdFloatSqrt             0      0.00%     82.89% # Type of FU issued
system.cpu0.iq.FU_type_0::MemRead             1263340     15.69%     98.58% # Type of FU issued
system.cpu0.iq.FU_type_0::MemWrite             108762      1.35%     99.93% # Type of FU issued
system.cpu0.iq.FU_type_0::FloatMemRead           5740      0.07%    100.00% # Type of FU issued
system.cpu0.iq.FU_type_0::FloatMemWrite           126      0.00%    100.00% # Type of FU issued
system.cpu0.iq.FU_type_0::IprAccess                 0      0.00%    100.00% # Type of FU issued
system.cpu0.iq.FU_type_0::InstPrefetch              0      0.00%    100.00% # Type of FU issued
system.cpu0.iq.FU_type_0::total               8054019                       # Type of FU issued
system.cpu0.iq.rate                          0.263766                       # Inst issue rate
system.cpu0.iq.fu_busy_cnt                      30498                       # FU busy when requested
system.cpu0.iq.fu_busy_rate                  0.003787                       # FU busy rate (busy events/executed inst)
system.cpu0.iq.int_inst_queue_reads          46569311                       # Number of integer instruction queue reads
system.cpu0.iq.int_inst_queue_writes         18121800                       # Number of integer instruction queue writes
system.cpu0.iq.int_inst_queue_wakeup_accesses      7680655                       # Number of integer instruction queue wakeup accesses
system.cpu0.iq.fp_inst_queue_reads              67434                       # Number of floating instruction queue reads
system.cpu0.iq.fp_inst_queue_writes             62876                       # Number of floating instruction queue writes
system.cpu0.iq.fp_inst_queue_wakeup_accesses        29063                       # Number of floating instruction queue wakeup accesses
system.cpu0.iq.vec_inst_queue_reads                 0                       # Number of vector instruction queue reads
system.cpu0.iq.vec_inst_queue_writes                0                       # Number of vector instruction queue writes
system.cpu0.iq.vec_inst_queue_wakeup_accesses            0                       # Number of vector instruction queue wakeup accesses
system.cpu0.iq.int_alu_accesses               8017815                       # Number of integer alu accesses
system.cpu0.iq.fp_alu_accesses                  34748                       # Number of floating point alu accesses
system.cpu0.iq.vec_alu_accesses                     0                       # Number of vector alu accesses
system.cpu0.iew.lsq.thread0.forwLoads            9008                       # Number of loads that had data forwarded from stores
system.cpu0.iew.lsq.thread0.invAddrLoads            0                       # Number of loads ignored due to an invalid address
system.cpu0.iew.lsq.thread0.squashedLoads      1327864                       # Number of loads squashed
system.cpu0.iew.lsq.thread0.ignoredResponses          313                       # Number of memory responses ignored because the instruction is squashed
system.cpu0.iew.lsq.thread0.memOrderViolation            8                       # Number of memory ordering violations
system.cpu0.iew.lsq.thread0.squashedStores        89437                       # Number of stores squashed
system.cpu0.iew.lsq.thread0.invAddrSwpfs            0                       # Number of software prefetches ignored due to an invalid address
system.cpu0.iew.lsq.thread0.blockedLoads            0                       # Number of blocked loads due to partial load-store forwarding
system.cpu0.iew.lsq.thread0.rescheduledLoads           75                       # Number of loads that were rescheduled
system.cpu0.iew.lsq.thread0.cacheBlocked         2022                       # Number of times an access to memory failed due to the cache being blocked
system.cpu0.iew.iewIdleCycles                       0                       # Number of cycles IEW is idle
system.cpu0.iew.iewSquashCycles                116636                       # Number of cycles IEW is squashing
system.cpu0.iew.iewBlockCycles               23208177                       # Number of cycles IEW is blocking
system.cpu0.iew.iewUnblockCycles               346220                       # Number of cycles IEW is unblocking
system.cpu0.iew.iewDispatchedInsts           11160845                       # Number of instructions dispatched to IQ
system.cpu0.iew.iewDispSquashedInsts             7301                       # Number of squashed instructions skipped by dispatch
system.cpu0.iew.iewDispLoadInsts              2086030                       # Number of dispatched load instructions
system.cpu0.iew.iewDispStoreInsts              146279                       # Number of dispatched store instructions
system.cpu0.iew.iewDispNonSpecInsts              3033                       # Number of dispatched non-speculative instructions
system.cpu0.iew.iewIQFullEvents                 26182                       # Number of times the IQ has become full, causing a stall
system.cpu0.iew.iewLSQFullEvents                84347                       # Number of times the LSQ has become full, causing a stall
system.cpu0.iew.memOrderViolationEvents             8                       # Number of memory order violations
system.cpu0.iew.predictedTakenIncorrect         60283                       # Number of branches that were predicted taken incorrectly
system.cpu0.iew.predictedNotTakenIncorrect        70651                       # Number of branches that were predicted not taken incorrectly
system.cpu0.iew.branchMispredicts              130934                       # Number of branch mispredicts detected at execute
system.cpu0.iew.iewExecutedInsts              7880670                       # Number of executed instructions
system.cpu0.iew.iewExecLoadInsts              1203229                       # Number of load instructions executed
system.cpu0.iew.iewExecSquashedInsts           173349                       # Number of squashed instructions skipped in execute
system.cpu0.iew.exec_swp                            0                       # number of swp insts executed
system.cpu0.iew.exec_nop                            0                       # number of nop insts executed
system.cpu0.iew.exec_refs                     1304313                       # number of memory reference insts executed
system.cpu0.iew.exec_branches                  930954                       # Number of branches executed
system.cpu0.iew.exec_stores                    101084                       # Number of stores executed
system.cpu0.iew.exec_rate                    0.258089                       # Inst execution rate
system.cpu0.iew.wb_sent                       7742170                       # cumulative count of insts sent to commit
system.cpu0.iew.wb_count                      7709718                       # cumulative count of insts written-back
system.cpu0.iew.wb_producers                  5738250                       # num instructions producing a value
system.cpu0.iew.wb_consumers                  9120770                       # num instructions consuming a value
system.cpu0.iew.wb_rate                      0.252490                       # insts written-back per cycle
system.cpu0.iew.wb_fanout                    0.629141                       # average fanout of values written-back
system.cpu0.commit.commitSquashedInsts        7024920                       # The number of squashed insts skipped by commit
system.cpu0.commit.branchMispredicts           116631                       # The number of times a branch was mispredicted
system.cpu0.commit.committed_per_cycle::samples     29481146                       # Number of insts commited each cycle
system.cpu0.commit.committed_per_cycle::mean     0.140328                       # Number of insts commited each cycle
system.cpu0.commit.committed_per_cycle::stdev     0.708381                       # Number of insts commited each cycle
system.cpu0.commit.committed_per_cycle::underflows            0      0.00%      0.00% # Number of insts commited each cycle
system.cpu0.commit.committed_per_cycle::0     27763440     94.17%     94.17% # Number of insts commited each cycle
system.cpu0.commit.committed_per_cycle::1       770949      2.62%     96.79% # Number of insts commited each cycle
system.cpu0.commit.committed_per_cycle::2       189438      0.64%     97.43% # Number of insts commited each cycle
system.cpu0.commit.committed_per_cycle::3       495500      1.68%     99.11% # Number of insts commited each cycle
system.cpu0.commit.committed_per_cycle::4        97030      0.33%     99.44% # Number of insts commited each cycle
system.cpu0.commit.committed_per_cycle::5        58367      0.20%     99.64% # Number of insts commited each cycle
system.cpu0.commit.committed_per_cycle::6        11486      0.04%     99.68% # Number of insts commited each cycle
system.cpu0.commit.committed_per_cycle::7         7664      0.03%     99.70% # Number of insts commited each cycle
system.cpu0.commit.committed_per_cycle::8        87272      0.30%    100.00% # Number of insts commited each cycle
system.cpu0.commit.committed_per_cycle::overflows            0      0.00%    100.00% # Number of insts commited each cycle
system.cpu0.commit.committed_per_cycle::min_value            0                       # Number of insts commited each cycle
system.cpu0.commit.committed_per_cycle::max_value            8                       # Number of insts commited each cycle
system.cpu0.commit.committed_per_cycle::total     29481146                       # Number of insts commited each cycle
system.cpu0.commit.committedInsts             2071012                       # Number of instructions committed
system.cpu0.commit.committedOps               4137020                       # Number of ops (including micro ops) committed
system.cpu0.commit.swp_count                        0                       # Number of s/w prefetches committed
system.cpu0.commit.refs                        815008                       # Number of memory references committed
system.cpu0.commit.loads                       758166                       # Number of loads committed
system.cpu0.commit.membars                          0                       # Number of memory barriers committed
system.cpu0.commit.branches                    723154                       # Number of branches committed
system.cpu0.commit.vec_insts                        0                       # Number of committed Vector instructions.
system.cpu0.commit.fp_insts                     22744                       # Number of committed floating point instructions.
system.cpu0.commit.int_insts                  4114028                       # Number of committed integer instructions.
system.cpu0.commit.function_calls               10025                       # Number of function calls committed.
system.cpu0.commit.op_class_0::No_OpClass         6856      0.17%      0.17% # Class of committed instruction
system.cpu0.commit.op_class_0::IntAlu         3278718     79.25%     79.42% # Class of committed instruction
system.cpu0.commit.op_class_0::IntMult            401      0.01%     79.43% # Class of committed instruction
system.cpu0.commit.op_class_0::IntDiv           16597      0.40%     79.83% # Class of committed instruction
system.cpu0.commit.op_class_0::FloatAdd         19440      0.47%     80.30% # Class of committed instruction
system.cpu0.commit.op_class_0::FloatCmp             0      0.00%     80.30% # Class of committed instruction
system.cpu0.commit.op_class_0::FloatCvt             0      0.00%     80.30% # Class of committed instruction
system.cpu0.commit.op_class_0::FloatMult            0      0.00%     80.30% # Class of committed instruction
system.cpu0.commit.op_class_0::FloatMultAcc            0      0.00%     80.30% # Class of committed instruction
system.cpu0.commit.op_class_0::FloatDiv             0      0.00%     80.30% # Class of committed instruction
system.cpu0.commit.op_class_0::FloatMisc            0      0.00%     80.30% # Class of committed instruction
system.cpu0.commit.op_class_0::FloatSqrt            0      0.00%     80.30% # Class of committed instruction
system.cpu0.commit.op_class_0::SimdAdd              0      0.00%     80.30% # Class of committed instruction
system.cpu0.commit.op_class_0::SimdAddAcc            0      0.00%     80.30% # Class of committed instruction
system.cpu0.commit.op_class_0::SimdAlu              0      0.00%     80.30% # Class of committed instruction
system.cpu0.commit.op_class_0::SimdCmp              0      0.00%     80.30% # Class of committed instruction
system.cpu0.commit.op_class_0::SimdCvt              0      0.00%     80.30% # Class of committed instruction
system.cpu0.commit.op_class_0::SimdMisc             0      0.00%     80.30% # Class of committed instruction
system.cpu0.commit.op_class_0::SimdMult             0      0.00%     80.30% # Class of committed instruction
system.cpu0.commit.op_class_0::SimdMultAcc            0      0.00%     80.30% # Class of committed instruction
system.cpu0.commit.op_class_0::SimdShift            0      0.00%     80.30% # Class of committed instruction
system.cpu0.commit.op_class_0::SimdShiftAcc            0      0.00%     80.30% # Class of committed instruction
system.cpu0.commit.op_class_0::SimdSqrt             0      0.00%     80.30% # Class of committed instruction
system.cpu0.commit.op_class_0::SimdFloatAdd            0      0.00%     80.30% # Class of committed instruction
system.cpu0.commit.op_class_0::SimdFloatAlu            0      0.00%     80.30% # Class of committed instruction
system.cpu0.commit.op_class_0::SimdFloatCmp            0      0.00%     80.30% # Class of committed instruction
system.cpu0.commit.op_class_0::SimdFloatCvt            0      0.00%     80.30% # Class of committed instruction
system.cpu0.commit.op_class_0::SimdFloatDiv            0      0.00%     80.30% # Class of committed instruction
system.cpu0.commit.op_class_0::SimdFloatMisc            0      0.00%     80.30% # Class of committed instruction
system.cpu0.commit.op_class_0::SimdFloatMult            0      0.00%     80.30% # Class of committed instruction
system.cpu0.commit.op_class_0::SimdFloatMultAcc            0      0.00%     80.30% # Class of committed instruction
system.cpu0.commit.op_class_0::SimdFloatSqrt            0      0.00%     80.30% # Class of committed instruction
system.cpu0.commit.op_class_0::MemRead         754862     18.25%     98.55% # Class of committed instruction
system.cpu0.commit.op_class_0::MemWrite         56842      1.37%     99.92% # Class of committed instruction
system.cpu0.commit.op_class_0::FloatMemRead         3304      0.08%    100.00% # Class of committed instruction
system.cpu0.commit.op_class_0::FloatMemWrite            0      0.00%    100.00% # Class of committed instruction
system.cpu0.commit.op_class_0::IprAccess            0      0.00%    100.00% # Class of committed instruction
system.cpu0.commit.op_class_0::InstPrefetch            0      0.00%    100.00% # Class of committed instruction
system.cpu0.commit.op_class_0::total          4137020                       # Class of committed instruction
system.cpu0.commit.bw_lim_events                87272                       # number cycles where commit BW limit reached
system.cpu0.rob.rob_reads                    40555814                       # The number of ROB reads
system.cpu0.rob.rob_writes                   23332620                       # The number of ROB writes
system.cpu0.timesIdled                            486                       # Number of times that the entire CPU went into an idle state and unscheduled itself
system.cpu0.idleCycles                          48129                       # Total number of cycles that the CPU has spent unscheduled due to idling
system.cpu0.committedInsts                    2071012                       # Number of Instructions Simulated
system.cpu0.committedOps                      4137020                       # Number of Ops (including micro ops) Simulated
system.cpu0.cpi                             14.743849                       # CPI: Cycles Per Instruction
system.cpu0.cpi_total                       14.743849                       # CPI: Total CPI of All Threads
system.cpu0.ipc                              0.067825                       # IPC: Instructions Per Cycle
system.cpu0.ipc_total                        0.067825                       # IPC: Total IPC of All Threads
system.cpu0.int_regfile_reads                 8088418                       # number of integer regfile reads
system.cpu0.int_regfile_writes                6693127                       # number of integer regfile writes
system.cpu0.fp_regfile_reads                    51296                       # number of floating regfile reads
system.cpu0.fp_regfile_writes                   25588                       # number of floating regfile writes
system.cpu0.cc_regfile_reads                  4873409                       # number of cc regfile reads
system.cpu0.cc_regfile_writes                 2137091                       # number of cc regfile writes
system.cpu0.misc_regfile_reads                4088472                       # number of misc regfile reads
system.cpu0.dcache.tags.pwrStateResidencyTicks::UNDEFINED  15267344125                       # Cumulative time (in ticks) in various power states
system.cpu0.dcache.tags.replacements           379565                       # number of replacements
system.cpu0.dcache.tags.tagsinuse                1024                       # Cycle average of tags in use
system.cpu0.dcache.tags.total_refs             578980                       # Total number of references to valid blocks.
system.cpu0.dcache.tags.sampled_refs           379565                       # Sample count of references to valid blocks.
system.cpu0.dcache.tags.avg_refs             1.525378                       # Average number of references to valid blocks.
system.cpu0.dcache.tags.warmup_cycle                0                       # Cycle when the warmup percentage was hit.
system.cpu0.dcache.tags.occ_blocks::cpu0.data         1024                       # Average occupied blocks per requestor
system.cpu0.dcache.tags.occ_percent::cpu0.data            1                       # Average percentage of cache occupancy
system.cpu0.dcache.tags.occ_percent::total            1                       # Average percentage of cache occupancy
system.cpu0.dcache.tags.occ_task_id_blocks::1024         1024                       # Occupied blocks per task id
system.cpu0.dcache.tags.age_task_id_blocks_1024::0          381                       # Occupied blocks per task id
system.cpu0.dcache.tags.age_task_id_blocks_1024::1          610                       # Occupied blocks per task id
system.cpu0.dcache.tags.age_task_id_blocks_1024::2           33                       # Occupied blocks per task id
system.cpu0.dcache.tags.occ_task_id_percent::1024            1                       # Percentage of cache occupancy per task id
system.cpu0.dcache.tags.tag_accesses          5352589                       # Number of tag accesses
system.cpu0.dcache.tags.data_accesses         5352589                       # Number of data accesses
system.cpu0.dcache.pwrStateResidencyTicks::UNDEFINED  15267344125                       # Cumulative time (in ticks) in various power states
system.cpu0.dcache.ReadReq_hits::cpu0.data       524247                       # number of ReadReq hits
system.cpu0.dcache.ReadReq_hits::total         524247                       # number of ReadReq hits
system.cpu0.dcache.WriteReq_hits::cpu0.data        55220                       # number of WriteReq hits
system.cpu0.dcache.WriteReq_hits::total         55220                       # number of WriteReq hits
system.cpu0.dcache.demand_hits::cpu0.data       579467                       # number of demand (read+write) hits
system.cpu0.dcache.demand_hits::total          579467                       # number of demand (read+write) hits
system.cpu0.dcache.overall_hits::cpu0.data       579467                       # number of overall hits
system.cpu0.dcache.overall_hits::total         579467                       # number of overall hits
system.cpu0.dcache.ReadReq_misses::cpu0.data       662167                       # number of ReadReq misses
system.cpu0.dcache.ReadReq_misses::total       662167                       # number of ReadReq misses
system.cpu0.dcache.WriteReq_misses::cpu0.data         1622                       # number of WriteReq misses
system.cpu0.dcache.WriteReq_misses::total         1622                       # number of WriteReq misses
system.cpu0.dcache.demand_misses::cpu0.data       663789                       # number of demand (read+write) misses
system.cpu0.dcache.demand_misses::total        663789                       # number of demand (read+write) misses
system.cpu0.dcache.overall_misses::cpu0.data       663789                       # number of overall misses
system.cpu0.dcache.overall_misses::total       663789                       # number of overall misses
system.cpu0.dcache.ReadReq_miss_latency::cpu0.data  34238089000                       # number of ReadReq miss cycles
system.cpu0.dcache.ReadReq_miss_latency::total  34238089000                       # number of ReadReq miss cycles
system.cpu0.dcache.WriteReq_miss_latency::cpu0.data     71231500                       # number of WriteReq miss cycles
system.cpu0.dcache.WriteReq_miss_latency::total     71231500                       # number of WriteReq miss cycles
system.cpu0.dcache.demand_miss_latency::cpu0.data  34309320500                       # number of demand (read+write) miss cycles
system.cpu0.dcache.demand_miss_latency::total  34309320500                       # number of demand (read+write) miss cycles
system.cpu0.dcache.overall_miss_latency::cpu0.data  34309320500                       # number of overall miss cycles
system.cpu0.dcache.overall_miss_latency::total  34309320500                       # number of overall miss cycles
system.cpu0.dcache.ReadReq_accesses::cpu0.data      1186414                       # number of ReadReq accesses(hits+misses)
system.cpu0.dcache.ReadReq_accesses::total      1186414                       # number of ReadReq accesses(hits+misses)
system.cpu0.dcache.WriteReq_accesses::cpu0.data        56842                       # number of WriteReq accesses(hits+misses)
system.cpu0.dcache.WriteReq_accesses::total        56842                       # number of WriteReq accesses(hits+misses)
system.cpu0.dcache.demand_accesses::cpu0.data      1243256                       # number of demand (read+write) accesses
system.cpu0.dcache.demand_accesses::total      1243256                       # number of demand (read+write) accesses
system.cpu0.dcache.overall_accesses::cpu0.data      1243256                       # number of overall (read+write) accesses
[...]
system.l2.ReadExReq_miss_rate::cpu0.data     0.336437                       # miss rate for ReadExReq accesses
system.l2.ReadExReq_miss_rate::total         0.336437                       # miss rate for ReadExReq accesses
system.l2.ReadCleanReq_miss_rate::cpu0.inst            1                       # miss rate for ReadCleanReq accesses
system.l2.ReadCleanReq_miss_rate::total             1                       # miss rate for ReadCleanReq accesses
system.l2.ReadSharedReq_miss_rate::cpu0.data     0.438064                       # miss rate for ReadSharedReq accesses
system.l2.ReadSharedReq_miss_rate::total     0.438064                       # miss rate for ReadSharedReq accesses
system.l2.demand_miss_rate::cpu0.inst               1                       # miss rate for demand accesses
system.l2.demand_miss_rate::cpu0.data        0.437633                       # miss rate for demand accesses
system.l2.demand_miss_rate::total            0.437634                       # miss rate for demand accesses
system.l2.overall_miss_rate::cpu0.inst              1                       # miss rate for overall accesses
system.l2.overall_miss_rate::cpu0.data       0.437633                       # miss rate for overall accesses
system.l2.overall_miss_rate::total           0.437634                       # miss rate for overall accesses
system.l2.ReadExReq_avg_miss_latency::cpu0.data 101732.472325                       # average ReadExReq miss latency
system.l2.ReadExReq_avg_miss_latency::total 101732.472325                       # average ReadExReq miss latency
system.l2.ReadCleanReq_avg_miss_latency::cpu0.inst       104000                       # average ReadCleanReq miss latency
system.l2.ReadCleanReq_avg_miss_latency::total       104000                       # average ReadCleanReq miss latency
system.l2.ReadSharedReq_avg_miss_latency::cpu0.data 95845.963592                       # average ReadSharedReq miss latency
system.l2.ReadSharedReq_avg_miss_latency::total 95845.963592                       # average ReadSharedReq miss latency
system.l2.demand_avg_miss_latency::cpu0.inst       104000                       # average overall miss latency
system.l2.demand_avg_miss_latency::cpu0.data 95865.170670                       # average overall miss latency
system.l2.demand_avg_miss_latency::total 95865.219642                       # average overall miss latency
system.l2.overall_avg_miss_latency::cpu0.inst       104000                       # average overall miss latency
system.l2.overall_avg_miss_latency::cpu0.data 95865.170670                       # average overall miss latency
system.l2.overall_avg_miss_latency::total 95865.219642                       # average overall miss latency
system.l2.blocked_cycles::no_mshrs                  0                       # number of cycles access was blocked
system.l2.blocked_cycles::no_targets                0                       # number of cycles access was blocked
system.l2.blocked::no_mshrs                         0                       # number of cycles access was blocked
system.l2.blocked::no_targets                       0                       # number of cycles access was blocked
system.l2.avg_blocked_cycles::no_mshrs            nan                       # average number of cycles each access was blocked
system.l2.avg_blocked_cycles::no_targets          nan                       # average number of cycles each access was blocked
system.l2.writebacks::writebacks                  649                       # number of writebacks
system.l2.writebacks::total                       649                       # number of writebacks
system.l2.ReadExReq_mshr_misses::cpu0.data          542                       # number of ReadExReq MSHR misses
system.l2.ReadExReq_mshr_misses::total            542                       # number of ReadExReq MSHR misses
system.l2.ReadCleanReq_mshr_misses::cpu0.inst            1                       # number of ReadCleanReq MSHR misses
system.l2.ReadCleanReq_mshr_misses::total            1                       # number of ReadCleanReq MSHR misses
system.l2.ReadSharedReq_mshr_misses::cpu0.data       165568                       # number of ReadSharedReq MSHR misses
system.l2.ReadSharedReq_mshr_misses::total       165568                       # number of ReadSharedReq MSHR misses
system.l2.demand_mshr_misses::cpu0.inst             1                       # number of demand (read+write) MSHR misses
system.l2.demand_mshr_misses::cpu0.data        166110                       # number of demand (read+write) MSHR misses
system.l2.demand_mshr_misses::total            166111                       # number of demand (read+write) MSHR misses
system.l2.overall_mshr_misses::cpu0.inst            1                       # number of overall MSHR misses
system.l2.overall_mshr_misses::cpu0.data       166110                       # number of overall MSHR misses
system.l2.overall_mshr_misses::total           166111                       # number of overall MSHR misses
system.l2.ReadExReq_mshr_miss_latency::cpu0.data     49719000                       # number of ReadExReq MSHR miss cycles
system.l2.ReadExReq_mshr_miss_latency::total     49719000                       # number of ReadExReq MSHR miss cycles
system.l2.ReadCleanReq_mshr_miss_latency::cpu0.inst        94000                       # number of ReadCleanReq MSHR miss cycles
system.l2.ReadCleanReq_mshr_miss_latency::total        94000                       # number of ReadCleanReq MSHR miss cycles
system.l2.ReadSharedReq_mshr_miss_latency::cpu0.data  14213344500                       # number of ReadSharedReq MSHR miss cycles
system.l2.ReadSharedReq_mshr_miss_latency::total  14213344500                       # number of ReadSharedReq MSHR miss cycles
system.l2.demand_mshr_miss_latency::cpu0.inst        94000                       # number of demand (read+write) MSHR miss cycles
system.l2.demand_mshr_miss_latency::cpu0.data  14263063500                       # number of demand (read+write) MSHR miss cycles
system.l2.demand_mshr_miss_latency::total  14263157500                       # number of demand (read+write) MSHR miss cycles
system.l2.overall_mshr_miss_latency::cpu0.inst        94000                       # number of overall MSHR miss cycles
system.l2.overall_mshr_miss_latency::cpu0.data  14263063500                       # number of overall MSHR miss cycles
system.l2.overall_mshr_miss_latency::total  14263157500                       # number of overall MSHR miss cycles
system.l2.ReadExReq_mshr_miss_rate::cpu0.data     0.336437                       # mshr miss rate for ReadExReq accesses
system.l2.ReadExReq_mshr_miss_rate::total     0.336437                       # mshr miss rate for ReadExReq accesses
system.l2.ReadCleanReq_mshr_miss_rate::cpu0.inst            1                       # mshr miss rate for ReadCleanReq accesses
system.l2.ReadCleanReq_mshr_miss_rate::total            1                       # mshr miss rate for ReadCleanReq accesses
system.l2.ReadSharedReq_mshr_miss_rate::cpu0.data     0.438064                       # mshr miss rate for ReadSharedReq accesses
system.l2.ReadSharedReq_mshr_miss_rate::total     0.438064                       # mshr miss rate for ReadSharedReq accesses
system.l2.demand_mshr_miss_rate::cpu0.inst            1                       # mshr miss rate for demand accesses
system.l2.demand_mshr_miss_rate::cpu0.data     0.437633                       # mshr miss rate for demand accesses
system.l2.demand_mshr_miss_rate::total       0.437634                       # mshr miss rate for demand accesses
system.l2.overall_mshr_miss_rate::cpu0.inst            1                       # mshr miss rate for overall accesses
system.l2.overall_mshr_miss_rate::cpu0.data     0.437633                       # mshr miss rate for overall accesses
system.l2.overall_mshr_miss_rate::total      0.437634                       # mshr miss rate for overall accesses
system.l2.ReadExReq_avg_mshr_miss_latency::cpu0.data 91732.472325                       # average ReadExReq mshr miss latency
system.l2.ReadExReq_avg_mshr_miss_latency::total 91732.472325                       # average ReadExReq mshr miss latency
system.l2.ReadCleanReq_avg_mshr_miss_latency::cpu0.inst        94000                       # average ReadCleanReq mshr miss latency
system.l2.ReadCleanReq_avg_mshr_miss_latency::total        94000                       # average ReadCleanReq mshr miss latency
system.l2.ReadSharedReq_avg_mshr_miss_latency::cpu0.data 85845.963592                       # average ReadSharedReq mshr miss latency
system.l2.ReadSharedReq_avg_mshr_miss_latency::total 85845.963592                       # average ReadSharedReq mshr miss latency
system.l2.demand_avg_mshr_miss_latency::cpu0.inst        94000                       # average overall mshr miss latency
system.l2.demand_avg_mshr_miss_latency::cpu0.data 85865.170670                       # average overall mshr miss latency
system.l2.demand_avg_mshr_miss_latency::total 85865.219642                       # average overall mshr miss latency
system.l2.overall_avg_mshr_miss_latency::cpu0.inst        94000                       # average overall mshr miss latency
system.l2.overall_avg_mshr_miss_latency::cpu0.data 85865.170670                       # average overall mshr miss latency
system.l2.overall_avg_mshr_miss_latency::total 85865.219642                       # average overall mshr miss latency
system.membus.snoop_filter.tot_requests        332216                       # Total number of requests made to the snoop filter.
system.membus.snoop_filter.hit_single_requests       166109                       # Number of requests hitting in the snoop filter with a single holder of the requested data.
system.membus.snoop_filter.hit_multi_requests            0                       # Number of requests hitting in the snoop filter with multiple (>1) holders of the requested data.
system.membus.snoop_filter.tot_snoops               0                       # Total number of snoops made to the snoop filter.
system.membus.snoop_filter.hit_single_snoops            0                       # Number of snoops hitting in the snoop filter with a single holder of the requested data.
system.membus.snoop_filter.hit_multi_snoops            0                       # Number of snoops hitting in the snoop filter with multiple (>1) holders of the requested data.
system.membus.pwrStateResidencyTicks::UNDEFINED  15267344125                       # Cumulative time (in ticks) in various power states
system.membus.trans_dist::ReadResp             165569                       # Transaction distribution
system.membus.trans_dist::WritebackDirty          649                       # Transaction distribution
system.membus.trans_dist::CleanEvict           165456                       # Transaction distribution
system.membus.trans_dist::ReadExReq               542                       # Transaction distribution
system.membus.trans_dist::ReadExResp              542                       # Transaction distribution
system.membus.trans_dist::ReadSharedReq        165569                       # Transaction distribution
system.membus.pkt_count_system.l2.mem_side::system.mem_ctrls.port       498327                       # Packet count per connected master and slave (bytes)
system.membus.pkt_count_system.l2.mem_side::total       498327                       # Packet count per connected master and slave (bytes)
system.membus.pkt_count::total                 498327                       # Packet count per connected master and slave (bytes)
system.membus.pkt_size_system.l2.mem_side::system.mem_ctrls.port     10672640                       # Cumulative packet size per connected master and slave (bytes)
system.membus.pkt_size_system.l2.mem_side::total     10672640                       # Cumulative packet size per connected master and slave (bytes)
system.membus.pkt_size::total                10672640                       # Cumulative packet size per connected master and slave (bytes)
system.membus.snoops                                0                       # Total snoops (count)
system.membus.snoopTraffic                          0                       # Total snoop traffic (bytes)
system.membus.snoop_fanout::samples            166111                       # Request fanout histogram
system.membus.snoop_fanout::mean                    0                       # Request fanout histogram
system.membus.snoop_fanout::stdev                   0                       # Request fanout histogram
system.membus.snoop_fanout::underflows              0      0.00%      0.00% # Request fanout histogram
system.membus.snoop_fanout::0                  166111    100.00%    100.00% # Request fanout histogram
system.membus.snoop_fanout::1                       0      0.00%    100.00% # Request fanout histogram
system.membus.snoop_fanout::overflows               0      0.00%    100.00% # Request fanout histogram
system.membus.snoop_fanout::min_value               0                       # Request fanout histogram
system.membus.snoop_fanout::max_value               0                       # Request fanout histogram
system.membus.snoop_fanout::total              166111                       # Request fanout histogram
system.membus.reqLayer8.occupancy           389054000                       # Layer occupancy (ticks)
system.membus.reqLayer8.utilization               2.5                       # Layer utilization (%)
system.membus.respLayer1.occupancy          903386750                       # Layer occupancy (ticks)
system.membus.respLayer1.utilization              5.9                       # Layer utilization (%)
system.tol2bus.snoop_filter.tot_requests       759132                       # Total number of requests made to the snoop filter.
system.tol2bus.snoop_filter.hit_single_requests       379566                       # Number of requests hitting in the snoop filter with a single holder of the requested data.
system.tol2bus.snoop_filter.hit_multi_requests          445                       # Number of requests hitting in the snoop filter with multiple (>1) holders of the requested data.
system.tol2bus.snoop_filter.tot_snoops              7                       # Total number of snoops made to the snoop filter.
system.tol2bus.snoop_filter.hit_single_snoops            7                       # Number of snoops hitting in the snoop filter with a single holder of the requested data.
system.tol2bus.snoop_filter.hit_multi_snoops            0                       # Number of snoops hitting in the snoop filter with multiple (>1) holders of the requested data.
system.tol2bus.pwrStateResidencyTicks::UNDEFINED  15267344125                       # Cumulative time (in ticks) in various power states
system.tol2bus.trans_dist::ReadResp            377955                       # Transaction distribution
system.tol2bus.trans_dist::WritebackDirty         5198                       # Transaction distribution
system.tol2bus.trans_dist::WritebackClean            1                       # Transaction distribution
system.tol2bus.trans_dist::CleanEvict          540479                       # Transaction distribution
system.tol2bus.trans_dist::ReadExReq             1611                       # Transaction distribution
system.tol2bus.trans_dist::ReadExResp            1611                       # Transaction distribution
system.tol2bus.trans_dist::ReadCleanReq             1                       # Transaction distribution
system.tol2bus.trans_dist::ReadSharedReq       377954                       # Transaction distribution
system.tol2bus.pkt_count_system.cpu0.icache.mem_side::system.l2.cpu_side            3                       # Packet count per connected master and slave (bytes)
system.tol2bus.pkt_count_system.cpu0.dcache.mem_side::system.l2.cpu_side      1138695                       # Packet count per connected master and slave (bytes)
system.tol2bus.pkt_count::total               1138698                       # Packet count per connected master and slave (bytes)
system.tol2bus.pkt_size_system.cpu0.icache.mem_side::system.l2.cpu_side          128                       # Cumulative packet size per connected master and slave (bytes)
system.tol2bus.pkt_size_system.cpu0.dcache.mem_side::system.l2.cpu_side     24583296                       # Cumulative packet size per connected master and slave (bytes)
system.tol2bus.pkt_size::total               24583424                       # Cumulative packet size per connected master and slave (bytes)
system.tol2bus.snoops                          166112                       # Total snoops (count)
system.tol2bus.snoopTraffic                     41536                       # Total snoop traffic (bytes)
system.tol2bus.snoop_fanout::samples           545678                       # Request fanout histogram
system.tol2bus.snoop_fanout::mean            0.000828                       # Request fanout histogram
system.tol2bus.snoop_fanout::stdev           0.028769                       # Request fanout histogram
system.tol2bus.snoop_fanout::underflows             0      0.00%      0.00% # Request fanout histogram
system.tol2bus.snoop_fanout::0                 545226     99.92%     99.92% # Request fanout histogram
system.tol2bus.snoop_fanout::1                    452      0.08%    100.00% # Request fanout histogram
system.tol2bus.snoop_fanout::2                      0      0.00%    100.00% # Request fanout histogram
system.tol2bus.snoop_fanout::3                      0      0.00%    100.00% # Request fanout histogram
system.tol2bus.snoop_fanout::4                      0      0.00%    100.00% # Request fanout histogram
system.tol2bus.snoop_fanout::5                      0      0.00%    100.00% # Request fanout histogram
system.tol2bus.snoop_fanout::6                      0      0.00%    100.00% # Request fanout histogram
system.tol2bus.snoop_fanout::7                      0      0.00%    100.00% # Request fanout histogram
system.tol2bus.snoop_fanout::8                      0      0.00%    100.00% # Request fanout histogram
system.tol2bus.snoop_fanout::9                      0      0.00%    100.00% # Request fanout histogram
system.tol2bus.snoop_fanout::10                     0      0.00%    100.00% # Request fanout histogram
system.tol2bus.snoop_fanout::11                     0      0.00%    100.00% # Request fanout histogram
system.tol2bus.snoop_fanout::12                     0      0.00%    100.00% # Request fanout histogram
system.tol2bus.snoop_fanout::13                     0      0.00%    100.00% # Request fanout histogram
system.tol2bus.snoop_fanout::14                     0      0.00%    100.00% # Request fanout histogram
system.tol2bus.snoop_fanout::15                     0      0.00%    100.00% # Request fanout histogram
system.tol2bus.snoop_fanout::16                     0      0.00%    100.00% # Request fanout histogram
system.tol2bus.snoop_fanout::overflows              0      0.00%    100.00% # Request fanout histogram
system.tol2bus.snoop_fanout::min_value              0                       # Request fanout histogram
system.tol2bus.snoop_fanout::max_value              1                       # Request fanout histogram
system.tol2bus.snoop_fanout::total             545678                       # Request fanout histogram
system.tol2bus.reqLayer0.occupancy          384116000                       # Layer occupancy (ticks)
system.tol2bus.reqLayer0.utilization              2.5                       # Layer utilization (%)
system.tol2bus.respLayer0.occupancy              1999                       # Layer occupancy (ticks)
system.tol2bus.respLayer0.utilization             0.0                       # Layer utilization (%)
system.tol2bus.respLayer1.occupancy         569347500                       # Layer occupancy (ticks)
system.tol2bus.respLayer1.utilization             3.7                       # Layer utilization (%)

---------- End Simulation Statistics   ----------
