
---------- Begin Simulation Statistics ----------
sim_seconds                                  0.015267                       # Number of seconds simulated
sim_ticks                                 15267344125                       # Number of ticks simulated
final_tick                               5389372476125                       # Number of ticks from beginning of simulation (restored from checkpoints and never reset)
sim_freq                                 1000000000000                       # Frequency of simulated ticks
host_inst_rate                              112943313                       # Simulator instruction rate (inst/s)
host_op_rate                                210065447                       # Simulator op (including micro ops) rate (op/s)
host_tick_rate                              294236444                       # Simulator tick rate (ticks/s)
host_mem_usage                                2332680                       # Number of bytes of host memory used
host_seconds                                    51.89                       # Real time elapsed on the host
sim_insts                                  5860401906                       # Number of instructions simulated
sim_ops                                   10899876578                       # Number of ops (including micro ops) simulated
system.voltage_domain.voltage                       1                       # Voltage in Volts
system.clk_domain.clock                          1000                       # Clock period in ticks
system.mem_ctrls.pwrStateResidencyTicks::UNDEFINED  15267344125                       # Cumulative time (in ticks) in various power states
system.mem_ctrls.bytes_read::cpu0.data       11709120                       # Number of bytes read from this memory
system.mem_ctrls.bytes_read::total           11709120                       # Number of bytes read from this memory
system.mem_ctrls.bytes_written::writebacks        25920                       # Number of bytes written to this memory
system.mem_ctrls.bytes_written::total           25920                       # Number of bytes written to this memory
system.mem_ctrls.num_reads::cpu0.data          182955                       # Number of read requests responded to by this memory
system.mem_ctrls.num_reads::total              182955                       # Number of read requests responded to by this memory
system.mem_ctrls.num_writes::writebacks           405                       # Number of write requests responded to by this memory
system.mem_ctrls.num_writes::total                405                       # Number of write requests responded to by this memory
system.mem_ctrls.bw_read::cpu0.data         766938893                       # Total read bandwidth from this memory (bytes/s)
system.mem_ctrls.bw_read::total             766938893                       # Total read bandwidth from this memory (bytes/s)
system.mem_ctrls.bw_write::writebacks         1697741                       # Write bandwidth from this memory (bytes/s)
system.mem_ctrls.bw_write::total              1697741                       # Write bandwidth from this memory (bytes/s)
system.mem_ctrls.bw_total::writebacks         1697741                       # Total bandwidth to/from this memory (bytes/s)
system.mem_ctrls.bw_total::cpu0.data        766938893                       # Total bandwidth to/from this memory (bytes/s)
system.mem_ctrls.bw_total::total            768636634                       # Total bandwidth to/from this memory (bytes/s)
system.mem_ctrls.readReqs                      182955                       # Number of read requests accepted
system.mem_ctrls.writeReqs                        405                       # Number of write requests accepted
system.mem_ctrls.readBursts                    182955                       # Number of DRAM read bursts, including those serviced by the write queue
system.mem_ctrls.writeBursts                      405                       # Number of DRAM write bursts, including those merged in the write queue
system.mem_ctrls.bytesReadDRAM               11705728                       # Total number of bytes read from DRAM
system.mem_ctrls.bytesReadWrQ                    3392                       # Total number of bytes read from write queue
system.mem_ctrls.bytesWritten                   25600                       # Total number of bytes written to DRAM
system.mem_ctrls.bytesReadSys                11709120                       # Total read bytes from the system interface side
system.mem_ctrls.bytesWrittenSys                25920                       # Total written bytes from the system interface side
system.mem_ctrls.servicedByWrQ                     53                       # Number of DRAM read bursts serviced by the write queue
system.mem_ctrls.mergedWrBursts                     0                       # Number of DRAM write bursts merged with an existing one
system.mem_ctrls.neitherReadNorWriteReqs            0                       # Number of requests that are neither read nor write
system.mem_ctrls.perBankRdBursts::0             11413                       # Per bank write bursts
system.mem_ctrls.perBankRdBursts::1             11188                       # Per bank write bursts
system.mem_ctrls.perBankRdBursts::2             11330                       # Per bank write bursts
system.mem_ctrls.perBankRdBursts::3             11403                       # Per bank write bursts
system.mem_ctrls.perBankRdBursts::4             11090                       # Per bank write bursts
system.mem_ctrls.perBankRdBursts::5             11359                       # Per bank write bursts
system.mem_ctrls.perBankRdBursts::6             11232                       # Per bank write bursts
system.mem_ctrls.perBankRdBursts::7             11221                       # Per bank write bursts
system.mem_ctrls.perBankRdBursts::8             11469                       # Per bank write bursts
system.mem_ctrls.perBankRdBursts::9             11224                       # Per bank write bursts
system.mem_ctrls.perBankRdBursts::10            11360                       # Per bank write bursts
system.mem_ctrls.perBankRdBursts::11            11577                       # Per bank write bursts
system.mem_ctrls.perBankRdBursts::12            12157                       # Per bank write bursts
system.mem_ctrls.perBankRdBursts::13            11510                       # Per bank write bursts
system.mem_ctrls.perBankRdBursts::14            11700                       # Per bank write bursts
system.mem_ctrls.perBankRdBursts::15            11669                       # Per bank write bursts
system.mem_ctrls.perBankWrBursts::0                 0                       # Per bank write bursts
system.mem_ctrls.perBankWrBursts::1                 0                       # Per bank write bursts
system.mem_ctrls.perBankWrBursts::2                 0                       # Per bank write bursts
system.mem_ctrls.perBankWrBursts::3                 0                       # Per bank write bursts
system.mem_ctrls.perBankWrBursts::4                 0                       # Per bank write bursts
system.mem_ctrls.perBankWrBursts::5                 0                       # Per bank write bursts
system.mem_ctrls.perBankWrBursts::6                 0                       # Per bank write bursts
system.mem_ctrls.perBankWrBursts::7                 0                       # Per bank write bursts
system.mem_ctrls.perBankWrBursts::8                 0                       # Per bank write bursts
system.mem_ctrls.perBankWrBursts::9                43                       # Per bank write bursts
system.mem_ctrls.perBankWrBursts::10                7                       # Per bank write bursts
system.mem_ctrls.perBankWrBursts::11              122                       # Per bank write bursts
system.mem_ctrls.perBankWrBursts::12              210                       # Per bank write bursts
system.mem_ctrls.perBankWrBursts::13               18                       # Per bank write bursts
system.mem_ctrls.perBankWrBursts::14                0                       # Per bank write bursts
system.mem_ctrls.perBankWrBursts::15                0                       # Per bank write bursts
system.mem_ctrls.numRdRetry                         0                       # Number of times read queue was full causing retry
system.mem_ctrls.numWrRetry                         0                       # Number of times write queue was full causing retry
system.mem_ctrls.totGap                   15267207000                       # Total gap between requests
system.mem_ctrls.readPktSize::0                     0                       # Read request sizes (log2)
system.mem_ctrls.readPktSize::1                     0                       # Read request sizes (log2)
system.mem_ctrls.readPktSize::2                     0                       # Read request sizes (log2)
system.mem_ctrls.readPktSize::3                     0                       # Read request sizes (log2)
system.mem_ctrls.readPktSize::4                     0                       # Read request sizes (log2)
system.mem_ctrls.readPktSize::5                     0                       # Read request sizes (log2)
system.mem_ctrls.readPktSize::6                182955                       # Read request sizes (log2)
system.mem_ctrls.writePktSize::0                    0                       # Write request sizes (log2)
system.mem_ctrls.writePktSize::1                    0                       # Write request sizes (log2)
system.mem_ctrls.writePktSize::2                    0                       # Write request sizes (log2)
system.mem_ctrls.writePktSize::3                    0                       # Write request sizes (log2)
system.mem_ctrls.writePktSize::4                    0                       # Write request sizes (log2)
system.mem_ctrls.writePktSize::5                    0                       # Write request sizes (log2)
system.mem_ctrls.writePktSize::6                  405                       # Write request sizes (log2)
system.mem_ctrls.rdQLenPdf::0                  139121                       # What read queue length does an incoming req see
system.mem_ctrls.rdQLenPdf::1                   40723                       # What read queue length does an incoming req see
system.mem_ctrls.rdQLenPdf::2                    2982                       # What read queue length does an incoming req see
system.mem_ctrls.rdQLenPdf::3                      76                       # What read queue length does an incoming req see
system.mem_ctrls.rdQLenPdf::4                       0                       # What read queue length does an incoming req see
system.mem_ctrls.rdQLenPdf::5                       0                       # What read queue length does an incoming req see
system.mem_ctrls.rdQLenPdf::6                       0                       # What read queue length does an incoming req see
system.mem_ctrls.rdQLenPdf::7                       0                       # What read queue length does an incoming req see
system.mem_ctrls.rdQLenPdf::8                       0                       # What read queue length does an incoming req see
system.mem_ctrls.rdQLenPdf::9                       0                       # What read queue length does an incoming req see
system.mem_ctrls.rdQLenPdf::10                      0                       # What read queue length does an incoming req see
system.mem_ctrls.rdQLenPdf::11                      0                       # What read queue length does an incoming req see
system.mem_ctrls.rdQLenPdf::12                      0                       # What read queue length does an incoming req see
system.mem_ctrls.rdQLenPdf::13                      0                       # What read queue length does an incoming req see
system.mem_ctrls.rdQLenPdf::14                      0                       # What read queue length does an incoming req see
system.mem_ctrls.rdQLenPdf::15                      0                       # What read queue length does an incoming req see
system.mem_ctrls.rdQLenPdf::16                      0                       # What read queue length does an incoming req see
system.mem_ctrls.rdQLenPdf::17                      0                       # What read queue length does an incoming req see
system.mem_ctrls.rdQLenPdf::18                      0                       # What read queue length does an incoming req see
system.mem_ctrls.rdQLenPdf::19                      0                       # What read queue length does an incoming req see
system.mem_ctrls.rdQLenPdf::20                      0                       # What read queue length does an incoming req see
system.mem_ctrls.rdQLenPdf::21                      0                       # What read queue length does an incoming req see
system.mem_ctrls.rdQLenPdf::22                      0                       # What read queue length does an incoming req see
system.mem_ctrls.rdQLenPdf::23                      0                       # What read queue length does an incoming req see
system.mem_ctrls.rdQLenPdf::24                      0                       # What read queue length does an incoming req see
system.mem_ctrls.rdQLenPdf::25                      0                       # What read queue length does an incoming req see
system.mem_ctrls.rdQLenPdf::26                      0                       # What read queue length does an incoming req see
system.mem_ctrls.rdQLenPdf::27                      0                       # What read queue length does an incoming req see
system.mem_ctrls.rdQLenPdf::28                      0                       # What read queue length does an incoming req see
system.mem_ctrls.rdQLenPdf::29                      0                       # What read queue length does an incoming req see
system.mem_ctrls.rdQLenPdf::30                      0                       # What read queue length does an incoming req see
system.mem_ctrls.rdQLenPdf::31                      0                       # What read queue length does an incoming req see
system.mem_ctrls.wrQLenPdf::0                       0                       # What write queue length does an incoming req see
system.mem_ctrls.wrQLenPdf::1                       0                       # What write queue length does an incoming req see
system.mem_ctrls.wrQLenPdf::2                       0                       # What write queue length does an incoming req see
system.mem_ctrls.wrQLenPdf::3                       0                       # What write queue length does an incoming req see
system.mem_ctrls.wrQLenPdf::4                       0                       # What write queue length does an incoming req see
system.mem_ctrls.wrQLenPdf::5                       0                       # What write queue length does an incoming req see
system.mem_ctrls.wrQLenPdf::6                       0                       # What write queue length does an incoming req see
system.mem_ctrls.wrQLenPdf::7                       0                       # What write queue length does an incoming req see
system.mem_ctrls.wrQLenPdf::8                       0                       # What write queue length does an incoming req see
system.mem_ctrls.wrQLenPdf::9                       0                       # What write queue length does an incoming req see
system.mem_ctrls.wrQLenPdf::10                      0                       # What write queue length does an incoming req see
system.mem_ctrls.wrQLenPdf::11                      0                       # What write queue length does an incoming req see
system.mem_ctrls.wrQLenPdf::12                      0                       # What write queue length does an incoming req see
system.mem_ctrls.wrQLenPdf::13                      0                       # What write queue length does an incoming req see
system.mem_ctrls.wrQLenPdf::14                      0                       # What write queue length does an incoming req see
system.mem_ctrls.wrQLenPdf::15                      0                       # What write queue length does an incoming req see
system.mem_ctrls.wrQLenPdf::16                      0                       # What write queue length does an incoming req see
system.mem_ctrls.wrQLenPdf::17                     24                       # What write queue length does an incoming req see
system.mem_ctrls.wrQLenPdf::18                     25                       # What write queue length does an incoming req see
system.mem_ctrls.wrQLenPdf::19                     25                       # What write queue length does an incoming req see
system.mem_ctrls.wrQLenPdf::20                     25                       # What write queue length does an incoming req see
system.mem_ctrls.wrQLenPdf::21                     25                       # What write queue length does an incoming req see
system.mem_ctrls.wrQLenPdf::22                     26                       # What write queue length does an incoming req see
system.mem_ctrls.wrQLenPdf::23                     26                       # What write queue length does an incoming req see
system.mem_ctrls.wrQLenPdf::24                     26                       # What write queue length does an incoming req see
system.mem_ctrls.wrQLenPdf::25                     26                       # What write queue length does an incoming req see
system.mem_ctrls.wrQLenPdf::26                     26                       # What write queue length does an incoming req see
system.mem_ctrls.wrQLenPdf::27                     25                       # What write queue length does an incoming req see
system.mem_ctrls.wrQLenPdf::28                     25                       # What write queue length does an incoming req see
system.mem_ctrls.wrQLenPdf::29                     25                       # What write queue length does an incoming req see
system.mem_ctrls.wrQLenPdf::30                     25                       # What write queue length does an incoming req see
system.mem_ctrls.wrQLenPdf::31                     25                       # What write queue length does an incoming req see
system.mem_ctrls.wrQLenPdf::32                     26                       # What write queue length does an incoming req see
system.mem_ctrls.wrQLenPdf::33                      0                       # What write queue length does an incoming req see
system.mem_ctrls.wrQLenPdf::34                      0                       # What write queue length does an incoming req see
system.mem_ctrls.wrQLenPdf::35                      0                       # What write queue length does an incoming req see
system.mem_ctrls.wrQLenPdf::36                      0                       # What write queue length does an incoming req see
system.mem_ctrls.wrQLenPdf::37                      0                       # What write queue length does an incoming req see
system.mem_ctrls.wrQLenPdf::38                      0                       # What write queue length does an incoming req see
system.mem_ctrls.wrQLenPdf::39                      0                       # What write queue length does an incoming req see
system.mem_ctrls.wrQLenPdf::40                      0                       # What write queue length does an incoming req see
system.mem_ctrls.wrQLenPdf::41                      0                       # What write queue length does an incoming req see
system.mem_ctrls.wrQLenPdf::42                      0                       # What write queue length does an incoming req see
system.mem_ctrls.wrQLenPdf::43                      0                       # What write queue length does an incoming req see
system.mem_ctrls.wrQLenPdf::44                      0                       # What write queue length does an incoming req see
system.mem_ctrls.wrQLenPdf::45                      0                       # What write queue length does an incoming req see
system.mem_ctrls.wrQLenPdf::46                      0                       # What write queue length does an incoming req see
system.mem_ctrls.wrQLenPdf::47                      0                       # What write queue length does an incoming req see
system.mem_ctrls.wrQLenPdf::48                      0                       # What write queue length does an incoming req see
system.mem_ctrls.wrQLenPdf::49                      0                       # What write queue length does an incoming req see
system.mem_ctrls.wrQLenPdf::50                      0                       # What write queue length does an incoming req see
system.mem_ctrls.wrQLenPdf::51                      0                       # What write queue length does an incoming req see
system.mem_ctrls.wrQLenPdf::52                      0                       # What write queue length does an incoming req see
system.mem_ctrls.wrQLenPdf::53                      0                       # What write queue length does an incoming req see
system.mem_ctrls.wrQLenPdf::54                      0                       # What write queue length does an incoming req see
system.mem_ctrls.wrQLenPdf::55                      0                       # What write queue length does an incoming req see
system.mem_ctrls.wrQLenPdf::56                      0                       # What write queue length does an incoming req see
system.mem_ctrls.wrQLenPdf::57                      0                       # What write queue length does an incoming req see
system.mem_ctrls.wrQLenPdf::58                      0                       # What write queue length does an incoming req see
system.mem_ctrls.wrQLenPdf::59                      0                       # What write queue length does an incoming req see
system.mem_ctrls.wrQLenPdf::60                      0                       # What write queue length does an incoming req see
system.mem_ctrls.wrQLenPdf::61                      0                       # What write queue length does an incoming req see
system.mem_ctrls.wrQLenPdf::62                      0                       # What write queue length does an incoming req see
system.mem_ctrls.wrQLenPdf::63                      0                       # What write queue length does an incoming req see
system.mem_ctrls.bytesPerActivate::samples        97377                       # Bytes accessed per row activation
system.mem_ctrls.bytesPerActivate::mean    120.470666                       # Bytes accessed per row activation
system.mem_ctrls.bytesPerActivate::gmean   103.984627                       # Bytes accessed per row activation
system.mem_ctrls.bytesPerActivate::stdev    72.488720                       # Bytes accessed per row activation
system.mem_ctrls.bytesPerActivate::0-127        47083     48.35%     48.35% # Bytes accessed per row activation
system.mem_ctrls.bytesPerActivate::128-255        41389     42.50%     90.86% # Bytes accessed per row activation
system.mem_ctrls.bytesPerActivate::256-383         7790      8.00%     98.85% # Bytes accessed per row activation
system.mem_ctrls.bytesPerActivate::384-511          997      1.02%     99.88% # Bytes accessed per row activation
system.mem_ctrls.bytesPerActivate::512-639           89      0.09%     99.97% # Bytes accessed per row activation
system.mem_ctrls.bytesPerActivate::640-767           12      0.01%     99.98% # Bytes accessed per row activation
system.mem_ctrls.bytesPerActivate::768-895            7      0.01%     99.99% # Bytes accessed per row activation
system.mem_ctrls.bytesPerActivate::896-1023            5      0.01%     99.99% # Bytes accessed per row activation
system.mem_ctrls.bytesPerActivate::1024-1151            5      0.01%    100.00% # Bytes accessed per row activation
system.mem_ctrls.bytesPerActivate::total        97377                       # Bytes accessed per row activation
system.mem_ctrls.rdPerTurnAround::samples           25                       # Reads before turning the bus around for writes
system.mem_ctrls.rdPerTurnAround::mean    7239.600000                       # Reads before turning the bus around for writes
system.mem_ctrls.rdPerTurnAround::gmean   7078.301788                       # Reads before turning the bus around for writes
system.mem_ctrls.rdPerTurnAround::stdev   1603.356220                       # Reads before turning the bus around for writes
system.mem_ctrls.rdPerTurnAround::4608-5119            1      4.00%      4.00% # Reads before turning the bus around for writes
system.mem_ctrls.rdPerTurnAround::5120-5631            1      4.00%      8.00% # Reads before turning the bus around for writes
system.mem_ctrls.rdPerTurnAround::5632-6143            6     24.00%     32.00% # Reads before turning the bus around for writes
system.mem_ctrls.rdPerTurnAround::6144-6655            6     24.00%     56.00% # Reads before turning the bus around for writes
system.mem_ctrls.rdPerTurnAround::7168-7679            1      4.00%     60.00% # Reads before turning the bus around for writes
system.mem_ctrls.rdPerTurnAround::7680-8191            2      8.00%     68.00% # Reads before turning the bus around for writes
system.mem_ctrls.rdPerTurnAround::8192-8703            3     12.00%     80.00% # Reads before turning the bus around for writes
system.mem_ctrls.rdPerTurnAround::8704-9215            1      4.00%     84.00% # Reads before turning the bus around for writes
system.mem_ctrls.rdPerTurnAround::9216-9727            1      4.00%     88.00% # Reads before turning the bus around for writes
system.mem_ctrls.rdPerTurnAround::9728-10239            2      8.00%     96.00% # Reads before turning the bus around for writes
system.mem_ctrls.rdPerTurnAround::10240-10751            1      4.00%    100.00% # Reads before turning the bus around for writes
system.mem_ctrls.rdPerTurnAround::total            25                       # Reads before turning the bus around for writes
system.mem_ctrls.wrPerTurnAround::samples           25                       # Writes before turning the bus around for reads
system.mem_ctrls.wrPerTurnAround::mean             16                       # Writes before turning the bus around for reads
system.mem_ctrls.wrPerTurnAround::gmean     16.000000                       # Writes before turning the bus around for reads
system.mem_ctrls.wrPerTurnAround::16               25    100.00%    100.00% # Writes before turning the bus around for reads
system.mem_ctrls.wrPerTurnAround::total            25                       # Writes before turning the bus around for reads
system.mem_ctrls.totQLat                   4582810250                       # Total ticks spent queuing
system.mem_ctrls.totMemAccLat              8012222750                       # Total ticks spent from burst creation until serviced by the DRAM
system.mem_ctrls.totBusLat                  914510000                       # Total ticks spent in databus transfers
system.mem_ctrls.avgQLat                     25056.10                       # Average queueing delay per DRAM burst
system.mem_ctrls.avgBusLat                    5000.00                       # Average bus latency per DRAM burst
system.mem_ctrls.avgMemAccLat                43806.10                       # Average memory access latency per DRAM burst
system.mem_ctrls.avgRdBW                       766.72                       # Average DRAM read bandwidth in MiByte/s
system.mem_ctrls.avgWrBW                         1.68                       # Average achieved write bandwidth in MiByte/s
system.mem_ctrls.avgRdBWSys                    766.94                       # Average system read bandwidth in MiByte/s
system.mem_ctrls.avgWrBWSys                      1.70                       # Average system write bandwidth in MiByte/s
system.mem_ctrls.peakBW                      12800.00                       # Theoretical peak bandwidth in MiByte/s
system.mem_ctrls.busUtil                         6.00                       # Data bus utilization in percentage
system.mem_ctrls.busUtilRead                     5.99                       # Data bus utilization in percentage for reads
system.mem_ctrls.busUtilWrite                    0.01                       # Data bus utilization in percentage for writes
system.mem_ctrls.avgRdQLen                       1.31                       # Average read queue length when enqueuing
system.mem_ctrls.avgWrQLen                      25.27                       # Average write queue length when enqueuing
system.mem_ctrls.readRowHits                    85578                       # Number of row buffer hits during reads
system.mem_ctrls.writeRowHits                     344                       # Number of row buffer hits during writes
system.mem_ctrls.readRowHitRate                 46.79                       # Row buffer hit rate for reads
system.mem_ctrls.writeRowHitRate                84.94                       # Row buffer hit rate for writes
system.mem_ctrls.avgGap                      83263.56                       # Average gap between requests
system.mem_ctrls.pageHitRate                    46.87                       # Row buffer hit rate, read and write combined
system.mem_ctrls_0.actEnergy                344026620                       # Energy for activate commands per rank (pJ)
system.mem_ctrls_0.preEnergy                182831715                       # Energy for precharge commands per rank (pJ)
system.mem_ctrls_0.readEnergy               644285040                       # Energy for read commands per rank (pJ)
system.mem_ctrls_0.writeEnergy                      0                       # Energy for write commands per rank (pJ)
system.mem_ctrls_0.refreshEnergy         1204694400.000000                       # Energy for refresh commands per rank (pJ)
system.mem_ctrls_0.actBackEnergy           1556566830                       # Energy for active background per rank (pJ)
system.mem_ctrls_0.preBackEnergy             24558720                       # Energy for precharge background per rank (pJ)
system.mem_ctrls_0.actPowerDownEnergy      5243391810                       # Energy for active power-down per rank (pJ)
system.mem_ctrls_0.prePowerDownEnergy       111820320                       # Energy for precharge power-down per rank (pJ)
system.mem_ctrls_0.selfRefreshEnergy                0                       # Energy for self refresh per rank (pJ)
system.mem_ctrls_0.totalEnergy             9312175455                       # Total energy per rank (pJ)
system.mem_ctrls_0.averagePower            609.940758                       # Core power per rank (mW)
system.mem_ctrls_0.totalIdleTime          11788521250                       # Total Idle time Per DRAM Rank
system.mem_ctrls_0.memoryStateTime::IDLE      9569000                       # Time in different power states
system.mem_ctrls_0.memoryStateTime::REF     509600000                       # Time in different power states
system.mem_ctrls_0.memoryStateTime::SREF            0                       # Time in different power states
system.mem_ctrls_0.memoryStateTime::PRE_PDN    290855750                       # Time in different power states
system.mem_ctrls_0.memoryStateTime::ACT    2959501500                       # Time in different power states
system.mem_ctrls_0.memoryStateTime::ACT_PDN  11497817875                       # Time in different power states
system.mem_ctrls_1.actEnergy                351266580                       # Energy for activate commands per rank (pJ)
system.mem_ctrls_1.preEnergy                186714000                       # Energy for precharge commands per rank (pJ)
system.mem_ctrls_1.readEnergy               661635240                       # Energy for read commands per rank (pJ)
system.mem_ctrls_1.writeEnergy                2088000                       # Energy for write commands per rank (pJ)
system.mem_ctrls_1.refreshEnergy         1205309040.000000                       # Energy for refresh commands per rank (pJ)
system.mem_ctrls_1.actBackEnergy           1591856670                       # Energy for active background per rank (pJ)
system.mem_ctrls_1.preBackEnergy             24701760                       # Energy for precharge background per rank (pJ)
system.mem_ctrls_1.actPowerDownEnergy      5224320750                       # Energy for active power-down per rank (pJ)
system.mem_ctrls_1.prePowerDownEnergy        98019360                       # Energy for precharge power-down per rank (pJ)
system.mem_ctrls_1.selfRefreshEnergy                0                       # Energy for self refresh per rank (pJ)
system.mem_ctrls_1.totalEnergy             9345911400                       # Total energy per rank (pJ)
system.mem_ctrls_1.averagePower            612.150438                       # Core power per rank (mW)
system.mem_ctrls_1.totalIdleTime          11709481000                       # Total Idle time Per DRAM Rank
system.mem_ctrls_1.memoryStateTime::IDLE      9744750                       # Time in different power states
system.mem_ctrls_1.memoryStateTime::REF     509860000                       # Time in different power states
system.mem_ctrls_1.memoryStateTime::SREF            0                       # Time in different power states
system.mem_ctrls_1.memoryStateTime::PRE_PDN    254910750                       # Time in different power states
system.mem_ctrls_1.memoryStateTime::ACT    3036632000                       # Time in different power states
system.mem_ctrls_1.memoryStateTime::ACT_PDN  11456196625                       # Time in different power states
system.pwrStateResidencyTicks::UNDEFINED  15267344125                       # Cumulative time (in ticks) in various power states
system.cpu0.branchPred.lookups                2006309                       # Number of BP lookups
system.cpu0.branchPred.condPredicted          2006309                       # Number of conditional branches predicted
system.cpu0.branchPred.condIncorrect            90346                       # Number of conditional branches incorrect
system.cpu0.branchPred.BTBLookups             1638817                       # Number of BTB lookups
system.cpu0.branchPred.BTBHits                      0                       # Number of BTB hits
system.cpu0.branchPred.BTBCorrect                   0                       # Number of correct BTB predictions (this stat may not work properly.
system.cpu0.branchPred.BTBHitPct             0.000000                       # BTB Hit Percentage
system.cpu0.branchPred.usedRAS                  65611                       # Number of times the RAS was used to get a target.
system.cpu0.branchPred.RASInCorrect             10617                       # Number of incorrect RAS predictions.
system.cpu0.branchPred.indirectLookups        1638817                       # Number of indirect predictor lookups.
system.cpu0.branchPred.indirectHits            835533                       # Number of indirect target hits.
system.cpu0.branchPred.indirectMisses          803284                       # Number of indirect misses.
system.cpu0.branchPredindirectMispredicted        27755                       # Number of mispredicted indirect branches.
system.cpu_voltage_domain.voltage                   1                       # Voltage in Volts
system.cpu_clk_domain.clock                       500                       # Clock period in ticks
system.cpu0.dtb.walker.pwrStateResidencyTicks::UNDEFINED  15267344125                       # Cumulative time (in ticks) in various power states
system.cpu0.dtb.rdAccesses                     958133                       # TLB accesses on read requests
system.cpu0.dtb.wrAccesses                      59631                       # TLB accesses on write requests
system.cpu0.dtb.rdMisses                       183288                       # TLB misses on read requests
system.cpu0.dtb.wrMisses                         1163                       # TLB misses on write requests
system.cpu0.apic_clk_domain.clock                8000                       # Clock period in ticks
system.cpu0.interrupts.pwrStateResidencyTicks::UNDEFINED  15267344125                       # Cumulative time (in ticks) in various power states
system.cpu0.itb.walker.pwrStateResidencyTicks::UNDEFINED  15267344125                       # Cumulative time (in ticks) in various power states
system.cpu0.itb.rdAccesses                          0                       # TLB accesses on read requests
system.cpu0.itb.wrAccesses                    1617161                       # TLB accesses on write requests
system.cpu0.itb.rdMisses                            0                       # TLB misses on read requests
system.cpu0.itb.wrMisses                         7819                       # TLB misses on write requests
system.cpu0.workload.numSyscalls                    0                       # Number of system calls
system.cpu0.pwrStateResidencyTicks::ON    15267344125                       # Cumulative time (in ticks) in various power states
system.cpu0.numCycles                        30534688                       # number of cpu cycles simulated
system.cpu0.numWorkItemsStarted                     0                       # number of work items this cpu started
system.cpu0.numWorkItemsCompleted                   0                       # number of work items this cpu completed
system.cpu0.fetch.icacheStallCycles           1657775                       # Number of cycles fetch is stalled on an Icache miss
system.cpu0.fetch.Insts                       5899643                       # Number of instructions fetch has processed
system.cpu0.fetch.Branches                    2006309                       # Number of branches that fetch encountered
system.cpu0.fetch.predictedBranches            901144                       # Number of branches that fetch has predicted taken
system.cpu0.fetch.Cycles                     28639475                       # Number of cycles fetch has run and was not squashing or blocked
system.cpu0.fetch.SquashCycles                 186012                       # Number of cycles fetch has spent squashing
system.cpu0.fetch.TlbCycles                      3302                       # Number of cycles fetch has spent waiting for tlb
system.cpu0.fetch.MiscStallCycles                1779                       # Number of cycles fetch has spent waiting on interrupts, or bad addresses, or out of MSHRs
system.cpu0.fetch.PendingTrapStallCycles        67817                       # Number of stall cycles due to pending traps
system.cpu0.fetch.CacheLines                  1609342                       # Number of cache lines fetched
system.cpu0.fetch.IcacheSquashes                10606                       # Number of outstanding Icache misses that were squashed
system.cpu0.fetch.ItlbSquashes                     12                       # Number of outstanding ITLB misses that were squashed
system.cpu0.fetch.rateDist::samples          30463154                       # Number of instructions fetched each cycle (Total)
system.cpu0.fetch.rateDist::mean             0.391015                       # Number of instructions fetched each cycle (Total)
system.cpu0.fetch.rateDist::stdev            1.569383                       # Number of instructions fetched each cycle (Total)
system.cpu0.fetch.rateDist::underflows              0      0.00%      0.00% # Number of instructions fetched each cycle (Total)
system.cpu0.fetch.rateDist::0                28197567     92.56%     92.56% # Number of instructions fetched each cycle (Total)
system.cpu0.fetch.rateDist::1                   23089      0.08%     92.64% # Number of instructions fetched each cycle (Total)
system.cpu0.fetch.rateDist::2                  784122      2.57%     95.21% # Number of instructions fetched each cycle (Total)
system.cpu0.fetch.rateDist::3                   34440      0.11%     95.33% # Number of instructions fetched each cycle (Total)
system.cpu0.fetch.rateDist::4                  156326      0.51%     95.84% # Number of instructions fetched each cycle (Total)
system.cpu0.fetch.rateDist::5                  103887      0.34%     96.18% # Number of instructions fetched each cycle (Total)
system.cpu0.fetch.rateDist::6                  102617      0.34%     96.52% # Number of instructions fetched each cycle (Total)
system.cpu0.fetch.rateDist::7                   32382      0.11%     96.62% # Number of instructions fetched each cycle (Total)
system.cpu0.fetch.rateDist::8                 1028724      3.38%    100.00% # Number of instructions fetched each cycle (Total)
system.cpu0.fetch.rateDist::overflows               0      0.00%    100.00% # Number of instructions fetched each cycle (Total)
system.cpu0.fetch.rateDist::min_value               0                       # Number of instructions fetched each cycle (Total)
system.cpu0.fetch.rateDist::max_value               8                       # Number of instructions fetched each cycle (Total)
system.cpu0.fetch.rateDist::total            30463154                       # Number of instructions fetched each cycle (Total)
system.cpu0.fetch.branchRate                 0.065706                       # Number of branch fetches per cycle
system.cpu0.fetch.rate                       0.193211                       # Number of inst fetches per cycle
system.cpu0.decode.IdleCycles                  845681                       # Number of cycles decode is idle
system.cpu0.decode.BlockedCycles             28036607                       # Number of cycles decode is blocked
system.cpu0.decode.RunCycles                  1115566                       # Number of cycles decode is running
system.cpu0.decode.UnblockCycles               372294                       # Number of cycles decode is unblocking
system.cpu0.decode.SquashCycles                 93006                       # Number of cycles decode is squashing
system.cpu0.decode.DecodedInsts               9702142                       # Number of instructions handled by decode
system.cpu0.rename.SquashCycles                 93006                       # Number of cycles rename is squashing
system.cpu0.rename.IdleCycles                  968058                       # Number of cycles rename is idle
system.cpu0.rename.BlockCycles               26387690                       # Number of cycles rename is blocking
system.cpu0.rename.serializeStallCycles         15867                       # count of cycles rename stalled for serializing inst
system.cpu0.rename.RunCycles                  1276417                       # Number of cycles rename is running
system.cpu0.rename.UnblockCycles              1722116                       # Number of cycles rename is unblocking
system.cpu0.rename.RenamedInsts               9274894                       # Number of instructions processed by rename
system.cpu0.rename.ROBFullEvents               126997                       # Number of times rename has blocked due to ROB full
system.cpu0.rename.IQFullEvents               1225431                       # Number of times rename has blocked due to IQ full
system.cpu0.rename.LQFullEvents                485072                       # Number of times rename has blocked due to LQ full
system.cpu0.rename.SQFullEvents                   513                       # Number of times rename has blocked due to SQ full
system.cpu0.rename.RenamedOperands           11063622                       # Number of destination operands rename has renamed
system.cpu0.rename.RenameLookups             25717449                       # Number of register rename lookups that rename has made
system.cpu0.rename.int_rename_lookups        12213576                       # Number of integer rename lookups
system.cpu0.rename.fp_rename_lookups            44921                       # Number of floating rename lookups
system.cpu0.rename.CommittedMaps              3666955                       # Number of HB maps that are committed
system.cpu0.rename.UndoneMaps                 7396659                       # Number of HB maps that are undone due to squashing
system.cpu0.rename.serializingInsts               391                       # count of serializing insts renamed
system.cpu0.rename.tempSerializingInsts           463                       # count of temporary serializing insts renamed
system.cpu0.rename.skidInsts                  2367341                       # count of insts added to the skid buffer
system.cpu0.memDep0.insertedLoads             1674948                       # Number of loads inserted to the mem dependence unit.
system.cpu0.memDep0.insertedStores              88989                       # Number of stores inserted to the mem dependence unit.
system.cpu0.memDep0.conflictingLoads             4742                       # Number of conflicting loads.
system.cpu0.memDep0.conflictingStores            5260                       # Number of conflicting stores.
system.cpu0.iq.iqInstsAdded                   8780100                       # Number of instructions added to the IQ (excludes non-spec)
system.cpu0.iq.iqNonSpecInstsAdded               5830                       # Number of non-speculative instructions added to the IQ
system.cpu0.iq.iqInstsIssued                  6285461                       # Number of instructions issued
system.cpu0.iq.iqSquashedInstsIssued             8294                       # Number of squashed instructions issued
system.cpu0.iq.iqSquashedInstsExamined        5727024                       # Number of squashed instructions iterated over during squash; mainly for profiling
system.cpu0.iq.iqSquashedOperandsExamined     11534536                       # Number of squashed operands that are examined and possibly removed from graph
system.cpu0.iq.iqSquashedNonSpecRemoved          5830                       # Number of squashed non-spec instructions that were removed
system.cpu0.iq.issued_per_cycle::samples     30463154                       # Number of insts issued each cycle
system.cpu0.iq.issued_per_cycle::mean        0.206330                       # Number of insts issued each cycle
system.cpu0.iq.issued_per_cycle::stdev       0.831257                       # Number of insts issued each cycle
system.cpu0.iq.issued_per_cycle::underflows            0      0.00%      0.00% # Number of insts issued each cycle
system.cpu0.iq.issued_per_cycle::0           27944193     91.73%     91.73% # Number of insts issued each cycle
system.cpu0.iq.issued_per_cycle::1             962503      3.16%     94.89% # Number of insts issued each cycle
system.cpu0.iq.issued_per_cycle::2             532248      1.75%     96.64% # Number of insts issued each cycle
system.cpu0.iq.issued_per_cycle::3             360429      1.18%     97.82% # Number of insts issued each cycle
system.cpu0.iq.issued_per_cycle::4             381805      1.25%     99.07% # Number of insts issued each cycle
system.cpu0.iq.issued_per_cycle::5             123941      0.41%     99.48% # Number of insts issued each cycle
system.cpu0.iq.issued_per_cycle::6              99995      0.33%     99.81% # Number of insts issued each cycle
system.cpu0.iq.issued_per_cycle::7              34040      0.11%     99.92% # Number of insts issued each cycle
system.cpu0.iq.issued_per_cycle::8              24000      0.08%    100.00% # Number of insts issued each cycle
system.cpu0.iq.issued_per_cycle::overflows            0      0.00%    100.00% # Number of insts issued each cycle
system.cpu0.iq.issued_per_cycle::min_value            0                       # Number of insts issued each cycle
system.cpu0.iq.issued_per_cycle::max_value            8                       # Number of insts issued each cycle
system.cpu0.iq.issued_per_cycle::total       30463154                       # Number of insts issued each cycle
system.cpu0.iq.fu_full::No_OpClass                  0      0.00%      0.00% # attempts to use FU when none available
system.cpu0.iq.fu_full::IntAlu                  13344     64.08%     64.08% # attempts to use FU when none available
system.cpu0.iq.fu_full::IntMult                     0      0.00%     64.08% # attempts to use FU when none available
system.cpu0.iq.fu_full::IntDiv                      0      0.00%     64.08% # attempts to use FU when none available
system.cpu0.iq.fu_full::FloatAdd                 1254      6.02%     70.10% # attempts to use FU when none available
system.cpu0.iq.fu_full::FloatCmp                    0      0.00%     70.10% # attempts to use FU when none available
system.cpu0.iq.fu_full::FloatCvt                    0      0.00%     70.10% # attempts to use FU when none available
system.cpu0.iq.fu_full::FloatMult                   0      0.00%     70.10% # attempts to use FU when none available
system.cpu0.iq.fu_full::FloatMultAcc                0      0.00%     70.10% # attempts to use FU when none available
system.cpu0.iq.fu_full::FloatDiv                    0      0.00%     70.10% # attempts to use FU when none available
system.cpu0.iq.fu_full::FloatMisc                   0      0.00%     70.10% # attempts to use FU when none available
system.cpu0.iq.fu_full::FloatSqrt                   0      0.00%     70.10% # attempts to use FU when none available
system.cpu0.iq.fu_full::SimdAdd                     0      0.00%     70.10% # attempts to use FU when none available
system.cpu0.iq.fu_full::SimdAddAcc                  0      0.00%     70.10% # attempts to use FU when none available
system.cpu0.iq.fu_full::SimdAlu                     0      0.00%     70.10% # attempts to use FU when none available
system.cpu0.iq.fu_full::SimdCmp                     0      0.00%     70.10% # attempts to use FU when none available
system.cpu0.iq.fu_full::SimdCvt                     0      0.00%     70.10% # attempts to use FU when none available
system.cpu0.iq.fu_full::SimdMisc                    0      0.00%     70.10% # attempts to use FU when none available
system.cpu0.iq.fu_full::SimdMult                    0      0.00%     70.10% # attempts to use FU when none available
system.cpu0.iq.fu_full::SimdMultAcc                 0      0.00%     70.10% # attempts to use FU when none available
system.cpu0.iq.fu_full::SimdShift                   0      0.00%     70.10% # attempts to use FU when none available
system.cpu0.iq.fu_full::SimdShiftAcc                0      0.00%     70.10% # attempts to use FU when none available
system.cpu0.iq.fu_full::SimdSqrt                    0      0.00%     70.10% # attempts to use FU when none available
system.cpu0.iq.fu_full::SimdFloatAdd                0      0.00%     70.10% # attempts to use FU when none available
system.cpu0.iq.fu_full::SimdFloatAlu                0      0.00%     70.10% # attempts to use FU when none available
system.cpu0.iq.fu_full::SimdFloatCmp                0      0.00%     70.10% # attempts to use FU when none available
system.cpu0.iq.fu_full::SimdFloatCvt                0      0.00%     70.10% # attempts to use FU when none available
system.cpu0.iq.fu_full::SimdFloatDiv                0      0.00%     70.10% # attempts to use FU when none available
system.cpu0.iq.fu_full::SimdFloatMisc               0      0.00%     70.10% # attempts to use FU when none available
system.cpu0.iq.fu_full::SimdFloatMult               0      0.00%     70.10% # attempts to use FU when none available
system.cpu0.iq.fu_full::SimdFloatMultAcc            0      0.00%     70.10% # attempts to use FU when none available
system.cpu0.iq.fu_full::SimdFloatSqrt               0      0.00%     70.10% # attempts to use FU when none available
system.cpu0.iq.fu_full::MemRead                  5676     27.26%     97.35% # attempts to use FU when none available
system.cpu0.iq.fu_full::MemWrite                  305      1.46%     98.82% # attempts to use FU when none available
system.cpu0.iq.fu_full::FloatMemRead              176      0.85%     99.66% # attempts to use FU when none available
system.cpu0.iq.fu_full::FloatMemWrite              70      0.34%    100.00% # attempts to use FU when none available
system.cpu0.iq.fu_full::IprAccess                   0      0.00%    100.00% # attempts to use FU when none available
system.cpu0.iq.fu_full::InstPrefetch                0      0.00%    100.00% # attempts to use FU when none available
system.cpu0.iq.FU_type_0::No_OpClass            22702      0.36%      0.36% # Type of FU issued
system.cpu0.iq.FU_type_0::IntAlu              5162752     82.14%     82.50% # Type of FU issued
system.cpu0.iq.FU_type_0::IntMult                1193      0.02%     82.52% # Type of FU issued
system.cpu0.iq.FU_type_0::IntDiv                10462      0.17%     82.68% # Type of FU issued
system.cpu0.iq.FU_type_0::FloatAdd              15577      0.25%     82.93% # Type of FU issued
system.cpu0.iq.FU_type_0::FloatCmp                  0      0.00%     82.93% # Type of FU issued
system.cpu0.iq.FU_type_0::FloatCvt                  0      0.00%     82.93% # Type of FU issued
system.cpu0.iq.FU_type_0::FloatMult                 0      0.00%     82.93% # Type of FU issued
system.cpu0.iq.FU_type_0::FloatMultAcc              0      0.00%     82.93% # Type of FU issued
system.cpu0.iq.FU_type_0::FloatDiv                  0      0.00%     82.93% # Type of FU issued
system.cpu0.iq.FU_type_0::FloatMisc                 0      0.00%     82.93% # Type of FU issued
system.cpu0.iq.FU_type_0::FloatSqrt                 0      0.00%     82.93% # Type of FU issued
system.cpu0.iq.FU_type_0::SimdAdd                   0      0.00%     82.93% # Type of FU issued
system.cpu0.iq.FU_type_0::SimdAddAcc                0      0.00%     82.93% # Type of FU issued
system.cpu0.iq.FU_type_0::SimdAlu                   0      0.00%     82.93% # Type of FU issued
system.cpu0.iq.FU_type_0::SimdCmp                   0      0.00%     82.93% # Type of FU issued
system.cpu0.iq.FU_type_0::SimdCvt                   0      0.00%     82.93% # Type of FU issued
system.cpu0.iq.FU_type_0::SimdMisc                  0      0.00%     82.93% # Type of FU issued
system.cpu0.iq.FU_type_0::SimdMult                  0      0.00%     82.93% # Type of FU issued
system.cpu0.iq.FU_type_0::SimdMultAcc               0      0.00%     82.93% # Type of FU issued
system.cpu0.iq.FU_type_0::SimdShift                 0      0.00%     82.93% # Type of FU issued
system.cpu0.iq.FU_type_0::SimdShiftAcc              0      0.00%     82.93% # Type of FU issued
system.cpu0.iq.FU_type_0::SimdSqrt                  0      0.00%     82.93% # Type of FU issued
system.cpu0.iq.FU_type_0::SimdFloatAdd              0      0.00%     82.93% # Type of FU issued
system.cpu0.iq.FU_type_0::SimdFloatAlu              0      0.00%     82.93% # Type of FU issued
system.cpu0.iq.FU_type_0::SimdFloatCmp              0      0.00%     82.93% # Type of FU issued
system.cpu0.iq.FU_type_0::SimdFloatCvt              0      0.00%     82.93% # Type of FU issued
system.cpu0.iq.FU_type_0::SimdFloatDiv              0      0.00%     82.93% # Type of FU issued
system.cpu0.iq.FU_type_0::SimdFloatMisc             0      0.00%     82.93% # Type of FU issued
system.cpu0.iq.FU_type_0::SimdFloatMult             0      0.00%     82.93% # Type of FU issued
system.cpu0.iq.FU_type_0::SimdFloatMultAcc            0      0.00%     82.93% # Type of FU issued
system.cpu0.iq.FU_type_0::SimdFloatSqrt             0      0.00%     82.93% # Type of FU issued
system.cpu0.iq.FU_type_0::MemRead             1005223     15.99%     98.93% # Type of FU issued
system.cpu0.iq.FU_type_0::MemWrite              64095      1.02%     99.95% # Type of FU issued
system.cpu0.iq.FU_type_0::FloatMemRead           3177      0.05%    100.00% # Type of FU issued
system.cpu0.iq.FU_type_0::FloatMemWrite           280      0.00%    100.00% # Type of FU issued
system.cpu0.iq.FU_type_0::IprAccess                 0      0.00%    100.00% # Type of FU issued
system.cpu0.iq.FU_type_0::InstPrefetch              0      0.00%    100.00% # Type of FU issued
system.cpu0.iq.FU_type_0::total               6285461                       # Type of FU issued
system.cpu0.iq.rate                          0.205847                       # Inst issue rate
system.cpu0.iq.fu_busy_cnt                      20825                       # FU busy when requested
system.cpu0.iq.fu_busy_rate                  0.003313                       # FU busy rate (busy events/executed inst)
system.cpu0.iq.int_inst_queue_reads          43023232                       # Number of integer instruction queue reads
system.cpu0.iq.int_inst_queue_writes         14474560                       # Number of integer instruction queue writes
system.cpu0.iq.int_inst_queue_wakeup_accesses      6006587                       # Number of integer instruction queue wakeup accesses
system.cpu0.iq.fp_inst_queue_reads              39963                       # Number of floating instruction queue reads
system.cpu0.iq.fp_inst_queue_writes             38400                       # Number of floating instruction queue writes
system.cpu0.iq.fp_inst_queue_wakeup_accesses        16826                       # Number of floating instruction queue wakeup accesses
system.cpu0.iq.vec_inst_queue_reads                 0                       # Number of vector instruction queue reads
system.cpu0.iq.vec_inst_queue_writes                0                       # Number of vector instruction queue writes
system.cpu0.iq.vec_inst_queue_wakeup_accesses            0                       # Number of vector instruction queue wakeup accesses
system.cpu0.iq.int_alu_accesses               6263019                       # Number of integer alu accesses
system.cpu0.iq.fp_alu_accesses                  20565                       # Number of floating point alu accesses
system.cpu0.iq.vec_alu_accesses                     0                       # Number of vector alu accesses
system.cpu0.iew.lsq.thread0.forwLoads            4643                       # Number of loads that had data forwarded from stores
system.cpu0.iew.lsq.thread0.invAddrLoads            0                       # Number of loads ignored due to an invalid address
system.cpu0.iew.lsq.thread0.squashedLoads      1092483                       # Number of loads squashed
system.cpu0.iew.lsq.thread0.ignoredResponses          207                       # Number of memory responses ignored because the instruction is squashed
system.cpu0.iew.lsq.thread0.memOrderViolation            8                       # Number of memory ordering violations
system.cpu0.iew.lsq.thread0.squashedStores        58939                       # Number of stores squashed
system.cpu0.iew.lsq.thread0.invAddrSwpfs            0                       # Number of software prefetches ignored due to an invalid address
system.cpu0.iew.lsq.thread0.blockedLoads            0                       # Number of blocked loads due to partial load-store forwarding
system.cpu0.iew.lsq.thread0.rescheduledLoads           41                       # Number of loads that were rescheduled
system.cpu0.iew.lsq.thread0.cacheBlocked         1910                       # Number of times an access to memory failed due to the cache being blocked
system.cpu0.iew.iewIdleCycles                       0                       # Number of cycles IEW is idle
system.cpu0.iew.iewSquashCycles                 93006                       # Number of cycles IEW is squashing
system.cpu0.iew.iewBlockCycles               23781678                       # Number of cycles IEW is blocking
system.cpu0.iew.iewUnblockCycles               322191                       # Number of cycles IEW is unblocking
system.cpu0.iew.iewDispatchedInsts            8785930                       # Number of instructions dispatched to IQ
system.cpu0.iew.iewDispSquashedInsts             6797                       # Number of squashed instructions skipped by dispatch
system.cpu0.iew.iewDispLoadInsts              1674948                       # Number of dispatched load instructions
system.cpu0.iew.iewDispStoreInsts               88989                       # Number of dispatched store instructions
system.cpu0.iew.iewDispNonSpecInsts              2169                       # Number of dispatched non-speculative instructions
system.cpu0.iew.iewIQFullEvents                 23330                       # Number of times the IQ has become full, causing a stall
system.cpu0.iew.iewLSQFullEvents                98465                       # Number of times the LSQ has become full, causing a stall
system.cpu0.iew.memOrderViolationEvents             8                       # Number of memory order violations
system.cpu0.iew.predictedTakenIncorrect         49313                       # Number of branches that were predicted taken incorrectly
system.cpu0.iew.predictedNotTakenIncorrect        53096                       # Number of branches that were predicted not taken incorrectly
system.cpu0.iew.branchMispredicts              102409                       # Number of branch mispredicts detected at execute
system.cpu0.iew.iewExecutedInsts              6159143                       # Number of executed instructions
system.cpu0.iew.iewExecLoadInsts               957850                       # Number of load instructions executed
system.cpu0.iew.iewExecSquashedInsts           126318                       # Number of squashed instructions skipped in execute
system.cpu0.iew.exec_swp                            0                       # number of swp insts executed
system.cpu0.iew.exec_nop                            0                       # number of nop insts executed
system.cpu0.iew.exec_refs                     1017457                       # number of memory reference insts executed
system.cpu0.iew.exec_branches                  728200                       # Number of branches executed
system.cpu0.iew.exec_stores                     59607                       # Number of stores executed
system.cpu0.iew.exec_rate                    0.201710                       # Inst execution rate
system.cpu0.iew.wb_sent                       6045976                       # cumulative count of insts sent to commit
system.cpu0.iew.wb_count                      6023413                       # cumulative count of insts written-back
system.cpu0.iew.wb_producers                  4484698                       # num instructions producing a value
system.cpu0.iew.wb_consumers                  7052724                       # num instructions consuming a value
system.cpu0.iew.wb_rate                      0.197265                       # insts written-back per cycle
system.cpu0.iew.wb_fanout                    0.635882                       # average fanout of values written-back
system.cpu0.commit.commitSquashedInsts        5728420                       # The number of squashed insts skipped by commit
system.cpu0.commit.branchMispredicts            93001                       # The number of times a branch was mispredicted
system.cpu0.commit.committed_per_cycle::samples     29640686                       # Number of insts commited each cycle
system.cpu0.commit.committed_per_cycle::mean     0.103199                       # Number of insts commited each cycle
system.cpu0.commit.committed_per_cycle::stdev     0.597008                       # Number of insts commited each cycle
system.cpu0.commit.committed_per_cycle::underflows            0      0.00%      0.00% # Number of insts commited each cycle
system.cpu0.commit.committed_per_cycle::0     28329761     95.58%     95.58% # Number of insts commited each cycle
system.cpu0.commit.committed_per_cycle::1       604889      2.04%     97.62% # Number of insts commited each cycle
system.cpu0.commit.committed_per_cycle::2       139357      0.47%     98.09% # Number of insts commited each cycle
system.cpu0.commit.committed_per_cycle::3       382694      1.29%     99.38% # Number of insts commited each cycle
system.cpu0.commit.committed_per_cycle::4        75427      0.25%     99.63% # Number of insts commited each cycle
system.cpu0.commit.committed_per_cycle::5        41750      0.14%     99.77% # Number of insts commited each cycle
system.cpu0.commit.committed_per_cycle::6         6464      0.02%     99.80% # Number of insts commited each cycle
system.cpu0.commit.committed_per_cycle::7         4780      0.02%     99.81% # Number of insts commited each cycle
system.cpu0.commit.committed_per_cycle::8        55564      0.19%    100.00% # Number of insts commited each cycle
system.cpu0.commit.committed_per_cycle::overflows            0      0.00%    100.00% # Number of insts commited each cycle
system.cpu0.commit.committed_per_cycle::min_value            0                       # Number of insts commited each cycle
system.cpu0.commit.committed_per_cycle::max_value            8                       # Number of insts commited each cycle
system.cpu0.commit.committed_per_cycle::total     29640686                       # Number of insts commited each cycle
system.cpu0.commit.committedInsts             1531345                       # Number of instructions committed
system.cpu0.commit.committedOps               3058899                       # Number of ops (including micro ops) committed
system.cpu0.commit.swp_count                        0                       # Number of s/w prefetches committed
system.cpu0.commit.refs                        612514                       # Number of memory references committed
system.cpu0.commit.loads                       582464                       # Number of loads committed
system.cpu0.commit.membars                          0                       # Number of memory barriers committed
system.cpu0.commit.branches                    552115                       # Number of branches committed
system.cpu0.commit.vec_insts                        0                       # Number of committed Vector instructions.
system.cpu0.commit.fp_insts                     12034                       # Number of committed floating point instructions.
system.cpu0.commit.int_insts                  3046752                       # Number of committed integer instructions.
system.cpu0.commit.function_calls                5300                       # Number of function calls committed.
system.cpu0.commit.op_class_0::No_OpClass         3613      0.12%      0.12% # Class of committed instruction
system.cpu0.commit.op_class_0::IntAlu         2423548     79.23%     79.35% # Class of committed instruction
system.cpu0.commit.op_class_0::IntMult            212      0.01%     79.35% # Class of committed instruction
system.cpu0.commit.op_class_0::IntDiv            8728      0.29%     79.64% # Class of committed instruction
system.cpu0.commit.op_class_0::FloatAdd         10284      0.34%     79.98% # Class of committed instruction
system.cpu0.commit.op_class_0::FloatCmp             0      0.00%     79.98% # Class of committed instruction
system.cpu0.commit.op_class_0::FloatCvt             0      0.00%     79.98% # Class of committed instruction
system.cpu0.commit.op_class_0::FloatMult            0      0.00%     79.98% # Class of committed instruction
system.cpu0.commit.op_class_0::FloatMultAcc            0      0.00%     79.98% # Class of committed instruction
system.cpu0.commit.op_class_0::FloatDiv             0      0.00%     79.98% # Class of committed instruction
system.cpu0.commit.op_class_0::FloatMisc            0      0.00%     79.98% # Class of committed instruction
system.cpu0.commit.op_class_0::FloatSqrt            0      0.00%     79.98% # Class of committed instruction
system.cpu0.commit.op_class_0::SimdAdd              0      0.00%     79.98% # Class of committed instruction
system.cpu0.commit.op_class_0::SimdAddAcc            0      0.00%     79.98% # Class of committed instruction
system.cpu0.commit.op_class_0::SimdAlu              0      0.00%     79.98% # Class of committed instruction
system.cpu0.commit.op_class_0::SimdCmp              0      0.00%     79.98% # Class of committed instruction
system.cpu0.commit.op_class_0::SimdCvt              0      0.00%     79.98% # Class of committed instruction
system.cpu0.commit.op_class_0::SimdMisc             0      0.00%     79.98% # Class of committed instruction
system.cpu0.commit.op_class_0::SimdMult             0      0.00%     79.98% # Class of committed instruction
system.cpu0.commit.op_class_0::SimdMultAcc            0      0.00%     79.98% # Class of committed instruction
system.cpu0.commit.op_class_0::SimdShift            0      0.00%     79.98% # Class of committed instruction
system.cpu0.commit.op_class_0::SimdShiftAcc            0      0.00%     79.98% # Class of committed instruction
system.cpu0.commit.op_class_0::SimdSqrt             0      0.00%     79.98% # Class of committed instruction
system.cpu0.commit.op_class_0::SimdFloatAdd            0      0.00%     79.98% # Class of committed instruction
system.cpu0.commit.op_class_0::SimdFloatAlu            0      0.00%     79.98% # Class of committed instruction
system.cpu0.commit.op_class_0::SimdFloatCmp            0      0.00%     79.98% # Class of committed instruction
system.cpu0.commit.op_class_0::SimdFloatCvt            0      0.00%     79.98% # Class of committed instruction
system.cpu0.commit.op_class_0::SimdFloatDiv            0      0.00%     79.98% # Class of committed instruction
system.cpu0.commit.op_class_0::SimdFloatMisc            0      0.00%     79.98% # Class of committed instruction
system.cpu0.commit.op_class_0::SimdFloatMult            0      0.00%     79.98% # Class of committed instruction
system.cpu0.commit.op_class_0::SimdFloatMultAcc            0      0.00%     79.98% # Class of committed instruction
system.cpu0.commit.op_class_0::SimdFloatSqrt            0      0.00%     79.98% # Class of committed instruction
system.cpu0.commit.op_class_0::MemRead         580714     18.98%     98.96% # Class of committed instruction
system.cpu0.commit.op_class_0::MemWrite         30050      0.98%     99.94% # Class of committed instruction
system.cpu0.commit.op_class_0::FloatMemRead         1750      0.06%    100.00% # Class of committed instruction
system.cpu0.commit.op_class_0::FloatMemWrite            0      0.00%    100.00% # Class of committed instruction
system.cpu0.commit.op_class_0::IprAccess            0      0.00%    100.00% # Class of committed instruction
system.cpu0.commit.op_class_0::InstPrefetch            0      0.00%    100.00% # Class of committed instruction
system.cpu0.commit.op_class_0::total          3058899                       # Class of committed instruction
system.cpu0.commit.bw_lim_events                55564                       # number cycles where commit BW limit reached
system.cpu0.rob.rob_reads                    38372441                       # The number of ROB reads
system.cpu0.rob.rob_writes                   18399088                       # The number of ROB writes
system.cpu0.timesIdled                            604                       # Number of times that the entire CPU went into an idle state and unscheduled itself
system.cpu0.idleCycles                          71534                       # Total number of cycles that the CPU has spent unscheduled due to idling
system.cpu0.committedInsts                    1531345                       # Number of Instructions Simulated
system.cpu0.committedOps                      3058899                       # Number of Ops (including micro ops) Simulated
system.cpu0.cpi                             19.939784                       # CPI: Cycles Per Instruction
system.cpu0.cpi_total                       19.939784                       # CPI: Total CPI of All Threads
system.cpu0.ipc                              0.050151                       # IPC: Instructions Per Cycle
system.cpu0.ipc_total                        0.050151                       # IPC: Total IPC of All Threads
system.cpu0.int_regfile_reads                 6180378                       # number of integer regfile reads
system.cpu0.int_regfile_writes                5242357                       # number of integer regfile writes
system.cpu0.fp_regfile_reads                    29916                       # number of floating regfile reads
system.cpu0.fp_regfile_writes                   14845                       # number of floating regfile writes
system.cpu0.cc_regfile_reads                  3806104                       # number of cc regfile reads
system.cpu0.cc_regfile_writes                 1666357                       # number of cc regfile writes
system.cpu0.misc_regfile_reads                3232396                       # number of misc regfile reads
system.cpu0.dcache.tags.pwrStateResidencyTicks::UNDEFINED  15267344125                       # Cumulative time (in ticks) in various power states
system.cpu0.dcache.tags.replacements           305063                       # number of replacements
system.cpu0.dcache.tags.tagsinuse                1024                       # Cycle average of tags in use
system.cpu0.dcache.tags.total_refs             433875                       # Total number of references to valid blocks.
system.cpu0.dcache.tags.sampled_refs           305063                       # Sample count of references to valid blocks.
system.cpu0.dcache.tags.avg_refs             1.422247                       # Average number of references to valid blocks.
system.cpu0.dcache.tags.warmup_cycle                0                       # Cycle when the warmup percentage was hit.
system.cpu0.dcache.tags.occ_blocks::cpu0.data         1024                       # Average occupied blocks per requestor
system.cpu0.dcache.tags.occ_percent::cpu0.data            1                       # Average percentage of cache occupancy
system.cpu0.dcache.tags.occ_percent::total            1                       # Average percentage of cache occupancy
system.cpu0.dcache.tags.occ_task_id_blocks::1024         1024                       # Occupied blocks per task id
system.cpu0.dcache.tags.age_task_id_blocks_1024::0          668                       # Occupied blocks per task id
system.cpu0.dcache.tags.age_task_id_blocks_1024::1          347                       # Occupied blocks per task id
system.cpu0.dcache.tags.age_task_id_blocks_1024::2            9                       # Occupied blocks per task id
system.cpu0.dcache.tags.occ_task_id_percent::1024            1                       # Percentage of cache occupancy per task id
system.cpu0.dcache.tags.tag_accesses          4216767                       # Number of tag accesses
system.cpu0.dcache.tags.data_accesses         4216767                       # Number of data accesses
system.cpu0.dcache.pwrStateResidencyTicks::UNDEFINED  15267344125                       # Cumulative time (in ticks) in various power states
system.cpu0.dcache.ReadReq_hits::cpu0.data       407964                       # number of ReadReq hits
system.cpu0.dcache.ReadReq_hits::total         407964                       # number of ReadReq hits
system.cpu0.dcache.WriteReq_hits::cpu0.data        28911                       # number of WriteReq hits
system.cpu0.dcache.WriteReq_hits::total         28911                       # number of WriteReq hits
system.cpu0.dcache.demand_hits::cpu0.data       436875                       # number of demand (read+write) hits
system.cpu0.dcache.demand_hits::total          436875                       # number of demand (read+write) hits
system.cpu0.dcache.overall_hits::cpu0.data       436875                       # number of overall hits
system.cpu0.dcache.overall_hits::total         436875                       # number of overall hits
system.cpu0.dcache.ReadReq_misses::cpu0.data       539912                       # number of ReadReq misses
system.cpu0.dcache.ReadReq_misses::total       539912                       # number of ReadReq misses
system.cpu0.dcache.WriteReq_misses::cpu0.data         1139                       # number of WriteReq misses
system.cpu0.dcache.WriteReq_misses::total         1139                       # number of WriteReq misses
system.cpu0.dcache.demand_misses::cpu0.data       541051                       # number of demand (read+write) misses
system.cpu0.dcache.demand_misses::total        541051                       # number of demand (read+write) misses
system.cpu0.dcache.overall_misses::cpu0.data       541051                       # number of overall misses
system.cpu0.dcache.overall_misses::total       541051                       # number of overall misses
system.cpu0.dcache.ReadReq_miss_latency::cpu0.data  34944150500                       # number of ReadReq miss cycles
system.cpu0.dcache.ReadReq_miss_latency::total  34944150500                       # number of ReadReq miss cycles
system.cpu0.dcache.WriteReq_miss_latency::cpu0.data     40833498                       # number of WriteReq miss cycles
system.cpu0.dcache.WriteReq_miss_latency::total     40833498                       # number of WriteReq miss cycles
system.cpu0.dcache.demand_miss_latency::cpu0.data  34984983998                       # number of demand (read+write) miss cycles
system.cpu0.dcache.demand_miss_latency::total  34984983998                       # number of demand (read+write) miss cycles
system.cpu0.dcache.overall_miss_latency::cpu0.data  34984983998                       # number of overall miss cycles
system.cpu0.dcache.overall_miss_latency::total  34984983998                       # number of overall miss cycles
system.cpu0.dcache.ReadReq_accesses::cpu0.data       947876                       # number of ReadReq accesses(hits+misses)
system.cpu0.dcache.ReadReq_accesses::total       947876                       # number of ReadReq accesses(hits+misses)
system.cpu0.dcache.WriteReq_accesses::cpu0.data        30050                       # number of WriteReq accesses(hits+misses)
system.cpu0.dcache.WriteReq_accesses::total        30050                       # number of WriteReq accesses(hits+misses)
system.cpu0.dcache.demand_accesses::cpu0.data       977926                       # number of demand (read+write) accesses
system.cpu0.dcache.demand_accesses::total       977926                       # number of demand (read+write) accesses
system.cpu0.dcache.overall_accesses::cpu0.data       977926                       # number of overall (read+write) accesses
system.cpu0.dcache.overall_accesses::total       977926                       # number of overall (read+write) accesses
system.cpu0.dcache.ReadReq_miss_rate::cpu0.data     0.569602                       # miss rate for ReadReq accesses
system.cpu0.dcache.ReadReq_miss_rate::total     0.569602                       # miss rate for ReadReq accesses
system.cpu0.dcache.WriteReq_miss_rate::cpu0.data     0.037903                       # miss rate for WriteReq accesses
system.cpu0.dcache.WriteReq_miss_rate::total     0.037903                       # miss rate for WriteReq accesses
system.cpu0.dcache.demand_miss_rate::cpu0.data     0.553264                       # miss rate for demand accesses
system.cpu0.dcache.demand_miss_rate::total     0.553264                       # miss rate for demand accesses
system.cpu0.dcache.overall_miss_rate::cpu0.data     0.553264                       # miss rate for overall accesses
system.cpu0.dcache.overall_miss_rate::total     0.553264                       # miss rate for overall accesses
system.cpu0.dcache.ReadReq_avg_miss_latency::cpu0.data 64721.937093                       # average ReadReq miss latency
system.cpu0.dcache.ReadReq_avg_miss_latency::total 64721.937093                       # average ReadReq miss latency
system.cpu0.dcache.WriteReq_avg_miss_latency::cpu0.data 35850.305531                       # average WriteReq miss latency
system.cpu0.dcache.WriteReq_avg_miss_latency::total 35850.305531                       # average WriteReq miss latency
system.cpu0.dcache.demand_avg_miss_latency::cpu0.data 64661.157632                       # average overall miss latency
system.cpu0.dcache.demand_avg_miss_latency::total 64661.157632                       # average overall miss latency
system.cpu0.dcache.overall_avg_miss_latency::cpu0.data 64661.157632                       # average overall miss latency
system.cpu0.dcache.overall_avg_miss_latency::total 64661.157632                       # average overall miss latency
[...]
system.l2.ReadSharedReq_hits::cpu0.data        121258                       # number of ReadSharedReq hits
system.l2.ReadSharedReq_hits::total            121258                       # number of ReadSharedReq hits
system.l2.demand_hits::cpu0.data               122107                       # number of demand (read+write) hits
system.l2.demand_hits::total                   122107                       # number of demand (read+write) hits
system.l2.overall_hits::cpu0.data              122107                       # number of overall hits
system.l2.overall_hits::total                  122107                       # number of overall hits
system.l2.ReadExReq_misses::cpu0.data             284                       # number of ReadExReq misses
system.l2.ReadExReq_misses::total                 284                       # number of ReadExReq misses
system.l2.ReadSharedReq_misses::cpu0.data       182671                       # number of ReadSharedReq misses
system.l2.ReadSharedReq_misses::total          182671                       # number of ReadSharedReq misses
system.l2.demand_misses::cpu0.data             182955                       # number of demand (read+write) misses
system.l2.demand_misses::total                 182955                       # number of demand (read+write) misses
system.l2.overall_misses::cpu0.data            182955                       # number of overall misses
system.l2.overall_misses::total                182955                       # number of overall misses
system.l2.ReadExReq_miss_latency::cpu0.data     28530000                       # number of ReadExReq miss cycles
system.l2.ReadExReq_miss_latency::total      28530000                       # number of ReadExReq miss cycles
system.l2.ReadSharedReq_miss_latency::cpu0.data  17420291000                       # number of ReadSharedReq miss cycles
system.l2.ReadSharedReq_miss_latency::total  17420291000                       # number of ReadSharedReq miss cycles
system.l2.demand_miss_latency::cpu0.data  17448821000                       # number of demand (read+write) miss cycles
system.l2.demand_miss_latency::total      17448821000                       # number of demand (read+write) miss cycles
system.l2.overall_miss_latency::cpu0.data  17448821000                       # number of overall miss cycles
system.l2.overall_miss_latency::total     17448821000                       # number of overall miss cycles
system.l2.WritebackDirty_accesses::writebacks         3068                       # number of WritebackDirty accesses(hits+misses)
system.l2.WritebackDirty_accesses::total         3068                       # number of WritebackDirty accesses(hits+misses)
system.l2.ReadExReq_accesses::cpu0.data          1133                       # number of ReadExReq accesses(hits+misses)
system.l2.ReadExReq_accesses::total              1133                       # number of ReadExReq accesses(hits+misses)
system.l2.ReadSharedReq_accesses::cpu0.data       303929                       # number of ReadSharedReq accesses(hits+misses)
system.l2.ReadSharedReq_accesses::total        303929                       # number of ReadSharedReq accesses(hits+misses)
system.l2.demand_accesses::cpu0.data           305062                       # number of demand (read+write) accesses
system.l2.demand_accesses::total               305062                       # number of demand (read+write) accesses
system.l2.overall_accesses::cpu0.data          305062                       # number of overall (read+write) accesses
system.l2.overall_accesses::total              305062                       # number of overall (read+write) accesses
system.l2.ReadExReq_miss_rate::cpu0.data     0.250662                       # miss rate for ReadExReq accesses
system.l2.ReadExReq_miss_rate::total         0.250662                       # miss rate for ReadExReq accesses
system.l2.ReadSharedReq_miss_rate::cpu0.data     0.601032                       # miss rate for ReadSharedReq accesses
system.l2.ReadSharedReq_miss_rate::total     0.601032                       # miss rate for ReadSharedReq accesses
system.l2.demand_miss_rate::cpu0.data        0.599731                       # miss rate for demand accesses
system.l2.demand_miss_rate::total            0.599731                       # miss rate for demand accesses
system.l2.overall_miss_rate::cpu0.data       0.599731                       # miss rate for overall accesses
system.l2.overall_miss_rate::total           0.599731                       # miss rate for overall accesses
system.l2.ReadExReq_avg_miss_latency::cpu0.data 100457.746479                       # average ReadExReq miss latency
system.l2.ReadExReq_avg_miss_latency::total 100457.746479                       # average ReadExReq miss latency
system.l2.ReadSharedReq_avg_miss_latency::cpu0.data 95364.294278                       # average ReadSharedReq miss latency
system.l2.ReadSharedReq_avg_miss_latency::total 95364.294278                       # average ReadSharedReq miss latency
system.l2.demand_avg_miss_latency::cpu0.data 95372.200814                       # average overall miss latency
system.l2.demand_avg_miss_latency::total 95372.200814                       # average overall miss latency
system.l2.overall_avg_miss_latency::cpu0.data 95372.200814                       # average overall miss latency
system.l2.overall_avg_miss_latency::total 95372.200814                       # average overall miss latency
system.l2.blocked_cycles::no_mshrs                  0                       # number of cycles access was blocked
system.l2.blocked_cycles::no_targets                0                       # number of cycles access was blocked
system.l2.blocked::no_mshrs                         0                       # number of cycles access was blocked
system.l2.blocked::no_targets                       0                       # number of cycles access was blocked
system.l2.avg_blocked_cycles::no_mshrs            nan                       # average number of cycles each access was blocked
system.l2.avg_blocked_cycles::no_targets          nan                       # average number of cycles each access was blocked
system.l2.writebacks::writebacks                  405                       # number of writebacks
system.l2.writebacks::total                       405                       # number of writebacks
system.l2.ReadExReq_mshr_misses::cpu0.data          284                       # number of ReadExReq MSHR misses
system.l2.ReadExReq_mshr_misses::total            284                       # number of ReadExReq MSHR misses
system.l2.ReadSharedReq_mshr_misses::cpu0.data       182671                       # number of ReadSharedReq MSHR misses
system.l2.ReadSharedReq_mshr_misses::total       182671                       # number of ReadSharedReq MSHR misses
system.l2.demand_mshr_misses::cpu0.data        182955                       # number of demand (read+write) MSHR misses
system.l2.demand_mshr_misses::total            182955                       # number of demand (read+write) MSHR misses
system.l2.overall_mshr_misses::cpu0.data       182955                       # number of overall MSHR misses
system.l2.overall_mshr_misses::total           182955                       # number of overall MSHR misses
system.l2.ReadExReq_mshr_miss_latency::cpu0.data     25690000                       # number of ReadExReq MSHR miss cycles
system.l2.ReadExReq_mshr_miss_latency::total     25690000                       # number of ReadExReq MSHR miss cycles
system.l2.ReadSharedReq_mshr_miss_latency::cpu0.data  15593571000                       # number of ReadSharedReq MSHR miss cycles
system.l2.ReadSharedReq_mshr_miss_latency::total  15593571000                       # number of ReadSharedReq MSHR miss cycles
system.l2.demand_mshr_miss_latency::cpu0.data  15619261000                       # number of demand (read+write) MSHR miss cycles
system.l2.demand_mshr_miss_latency::total  15619261000                       # number of demand (read+write) MSHR miss cycles
system.l2.overall_mshr_miss_latency::cpu0.data  15619261000                       # number of overall MSHR miss cycles
system.l2.overall_mshr_miss_latency::total  15619261000                       # number of overall MSHR miss cycles
system.l2.ReadExReq_mshr_miss_rate::cpu0.data     0.250662                       # mshr miss rate for ReadExReq accesses
system.l2.ReadExReq_mshr_miss_rate::total     0.250662                       # mshr miss rate for ReadExReq accesses
system.l2.ReadSharedReq_mshr_miss_rate::cpu0.data     0.601032                       # mshr miss rate for ReadSharedReq accesses
system.l2.ReadSharedReq_mshr_miss_rate::total     0.601032                       # mshr miss rate for ReadSharedReq accesses
system.l2.demand_mshr_miss_rate::cpu0.data     0.599731                       # mshr miss rate for demand accesses
system.l2.demand_mshr_miss_rate::total       0.599731                       # mshr miss rate for demand accesses
system.l2.overall_mshr_miss_rate::cpu0.data     0.599731                       # mshr miss rate for overall accesses
system.l2.overall_mshr_miss_rate::total      0.599731                       # mshr miss rate for overall accesses
system.l2.ReadExReq_avg_mshr_miss_latency::cpu0.data 90457.746479                       # average ReadExReq mshr miss latency
system.l2.ReadExReq_avg_mshr_miss_latency::total 90457.746479                       # average ReadExReq mshr miss latency
system.l2.ReadSharedReq_avg_mshr_miss_latency::cpu0.data 85364.239534                       # average ReadSharedReq mshr miss latency
system.l2.ReadSharedReq_avg_mshr_miss_latency::total 85364.239534                       # average ReadSharedReq mshr miss latency
system.l2.demand_avg_mshr_miss_latency::cpu0.data 85372.146156                       # average overall mshr miss latency
system.l2.demand_avg_mshr_miss_latency::total 85372.146156                       # average overall mshr miss latency
system.l2.overall_avg_mshr_miss_latency::cpu0.data 85372.146156                       # average overall mshr miss latency
system.l2.overall_avg_mshr_miss_latency::total 85372.146156                       # average overall mshr miss latency
system.membus.snoop_filter.tot_requests        365908                       # Total number of requests made to the snoop filter.
system.membus.snoop_filter.hit_single_requests       182955                       # Number of requests hitting in the snoop filter with a single holder of the requested data.
system.membus.snoop_filter.hit_multi_requests            0                       # Number of requests hitting in the snoop filter with multiple (>1) holders of the requested data.
system.membus.snoop_filter.tot_snoops               0                       # Total number of snoops made to the snoop filter.
system.membus.snoop_filter.hit_single_snoops            0                       # Number of snoops hitting in the snoop filter with a single holder of the requested data.
system.membus.snoop_filter.hit_multi_snoops            0                       # Number of snoops hitting in the snoop filter with multiple (>1) holders of the requested data.
system.membus.pwrStateResidencyTicks::UNDEFINED  15267344125                       # Cumulative time (in ticks) in various power states
system.membus.trans_dist::ReadResp             182671                       # Transaction distribution
system.membus.trans_dist::WritebackDirty          405                       # Transaction distribution
system.membus.trans_dist::CleanEvict           182548                       # Transaction distribution
system.membus.trans_dist::ReadExReq               284                       # Transaction distribution
system.membus.trans_dist::ReadExResp              284                       # Transaction distribution
system.membus.trans_dist::ReadSharedReq        182671                       # Transaction distribution
system.membus.pkt_count_system.l2.mem_side::system.mem_ctrls.port       548863                       # Packet count per connected master and slave (bytes)
system.membus.pkt_count_system.l2.mem_side::total       548863                       # Packet count per connected master and slave (bytes)
system.membus.pkt_count::total                 548863                       # Packet count per connected master and slave (bytes)
system.membus.pkt_size_system.l2.mem_side::system.mem_ctrls.port     11735040                       # Cumulative packet size per connected master and slave (bytes)
system.membus.pkt_size_system.l2.mem_side::total     11735040                       # Cumulative packet size per connected master and slave (bytes)
system.membus.pkt_size::total                11735040                       # Cumulative packet size per connected master and slave (bytes)
system.membus.snoops                                0                       # Total snoops (count)
system.membus.snoopTraffic                          0                       # Total snoop traffic (bytes)
system.membus.snoop_fanout::samples            182955                       # Request fanout histogram
system.membus.snoop_fanout::mean                    0                       # Request fanout histogram
system.membus.snoop_fanout::stdev                   0                       # Request fanout histogram
system.membus.snoop_fanout::underflows              0      0.00%      0.00% # Request fanout histogram
system.membus.snoop_fanout::0                  182955    100.00%    100.00% # Request fanout histogram
system.membus.snoop_fanout::1                       0      0.00%    100.00% # Request fanout histogram
system.membus.snoop_fanout::overflows               0      0.00%    100.00% # Request fanout histogram
system.membus.snoop_fanout::min_value               0                       # Request fanout histogram
system.membus.snoop_fanout::max_value               0                       # Request fanout histogram
system.membus.snoop_fanout::total              182955                       # Request fanout histogram
system.membus.reqLayer8.occupancy           429217500                       # Layer occupancy (ticks)
system.membus.reqLayer8.utilization               2.8                       # Layer utilization (%)
system.membus.respLayer1.occupancy          992067250                       # Layer occupancy (ticks)
system.membus.respLayer1.utilization              6.5                       # Layer utilization (%)
system.tol2bus.snoop_filter.tot_requests       610125                       # Total number of requests made to the snoop filter.
system.tol2bus.snoop_filter.hit_single_requests       305063                       # Number of requests hitting in the snoop filter with a single holder of the requested data.
system.tol2bus.snoop_filter.hit_multi_requests          369                       # Number of requests hitting in the snoop filter with multiple (>1) holders of the requested data.
system.tol2bus.snoop_filter.tot_snoops              3                       # Total number of snoops made to the snoop filter.
system.tol2bus.snoop_filter.hit_single_snoops            3                       # Number of snoops hitting in the snoop filter with a single holder of the requested data.
system.tol2bus.snoop_filter.hit_multi_snoops            0                       # Number of snoops hitting in the snoop filter with multiple (>1) holders of the requested data.
system.tol2bus.pwrStateResidencyTicks::UNDEFINED  15267344125                       # Cumulative time (in ticks) in various power states
system.tol2bus.trans_dist::ReadResp            303929                       # Transaction distribution
system.tol2bus.trans_dist::WritebackDirty         3473                       # Transaction distribution
system.tol2bus.trans_dist::CleanEvict          484546                       # Transaction distribution
system.tol2bus.trans_dist::ReadExReq             1133                       # Transaction distribution
system.tol2bus.trans_dist::ReadExResp            1133                       # Transaction distribution
system.tol2bus.trans_dist::ReadSharedReq       303929                       # Transaction distribution
system.tol2bus.pkt_count_system.cpu0.dcache.mem_side::system.l2.cpu_side       915187                       # Packet count per connected master and slave (bytes)
system.tol2bus.pkt_count::total                915187                       # Packet count per connected master and slave (bytes)
system.tol2bus.pkt_size_system.cpu0.dcache.mem_side::system.l2.cpu_side     19720320                       # Cumulative packet size per connected master and slave (bytes)
system.tol2bus.pkt_size::total               19720320                       # Cumulative packet size per connected master and slave (bytes)
system.tol2bus.snoops                          182956                       # Total snoops (count)
system.tol2bus.snoopTraffic                     25920                       # Total snoop traffic (bytes)
system.tol2bus.snoop_fanout::samples           488018                       # Request fanout histogram
system.tol2bus.snoop_fanout::mean            0.000762                       # Request fanout histogram
system.tol2bus.snoop_fanout::stdev           0.027599                       # Request fanout histogram
system.tol2bus.snoop_fanout::underflows             0      0.00%      0.00% # Request fanout histogram
system.tol2bus.snoop_fanout::0                 487646     99.92%     99.92% # Request fanout histogram
system.tol2bus.snoop_fanout::1                    372      0.08%    100.00% # Request fanout histogram
system.tol2bus.snoop_fanout::2                      0      0.00%    100.00% # Request fanout histogram
system.tol2bus.snoop_fanout::3                      0      0.00%    100.00% # Request fanout histogram
system.tol2bus.snoop_fanout::4                      0      0.00%    100.00% # Request fanout histogram
system.tol2bus.snoop_fanout::5                      0      0.00%    100.00% # Request fanout histogram
system.tol2bus.snoop_fanout::6                      0      0.00%    100.00% # Request fanout histogram
system.tol2bus.snoop_fanout::7                      0      0.00%    100.00% # Request fanout histogram
system.tol2bus.snoop_fanout::8                      0      0.00%    100.00% # Request fanout histogram
system.tol2bus.snoop_fanout::9                      0      0.00%    100.00% # Request fanout histogram
system.tol2bus.snoop_fanout::10                     0      0.00%    100.00% # Request fanout histogram
system.tol2bus.snoop_fanout::11                     0      0.00%    100.00% # Request fanout histogram
system.tol2bus.snoop_fanout::12                     0      0.00%    100.00% # Request fanout histogram
system.tol2bus.snoop_fanout::13                     0      0.00%    100.00% # Request fanout histogram
system.tol2bus.snoop_fanout::14                     0      0.00%    100.00% # Request fanout histogram
system.tol2bus.snoop_fanout::15                     0      0.00%    100.00% # Request fanout histogram
system.tol2bus.snoop_fanout::16                     0      0.00%    100.00% # Request fanout histogram
system.tol2bus.snoop_fanout::overflows              0      0.00%    100.00% # Request fanout histogram
system.tol2bus.snoop_fanout::min_value              0                       # Request fanout histogram
system.tol2bus.snoop_fanout::max_value              1                       # Request fanout histogram
system.tol2bus.snoop_fanout::total             488018                       # Request fanout histogram
system.tol2bus.reqLayer0.occupancy          308130500                       # Layer occupancy (ticks)
system.tol2bus.reqLayer0.utilization              2.0                       # Layer utilization (%)
system.tol2bus.respLayer1.occupancy         457593000                       # Layer occupancy (ticks)
system.tol2bus.respLayer1.utilization             3.0                       # Layer utilization (%)

---------- End Simulation Statistics   ----------
