
---------- Begin Simulation Statistics ----------
sim_seconds                                  0.015267                       # Number of seconds simulated
sim_ticks                                 15267344125                       # Number of ticks simulated
final_tick                               946575335750                       # Number of ticks from beginning of simulation (restored from checkpoints and never reset)
sim_freq                                 1000000000000                       # Frequency of simulated ticks
host_inst_rate                                6981030                       # Simulator instruction rate (inst/s)
host_op_rate                                 12970131                       # Simulator op (including micro ops) rate (op/s)
host_tick_rate                               51800503                       # Simulator tick rate (ticks/s)
host_mem_usage                                2330116                       # Number of bytes of host memory used
host_seconds                                   294.73                       # Real time elapsed on the host
sim_insts                                  2057543391                       # Number of instructions simulated
sim_ops                                    3822732122                       # Number of ops (including micro ops) simulated
system.voltage_domain.voltage                       1                       # Voltage in Volts
system.clk_domain.clock                          1000                       # Clock period in ticks
system.mem_ctrls.pwrStateResidencyTicks::UNDEFINED  15267344125                       # Cumulative time (in ticks) in various power states
system.mem_ctrls.bytes_read::cpu0.data         912640                       # Number of bytes read from this memory
system.mem_ctrls.bytes_read::total             912640                       # Number of bytes read from this memory
system.mem_ctrls.bytes_written::writebacks       861184                       # Number of bytes written to this memory
system.mem_ctrls.bytes_written::total          861184                       # Number of bytes written to this memory
system.mem_ctrls.num_reads::cpu0.data           14260                       # Number of read requests responded to by this memory
system.mem_ctrls.num_reads::total               14260                       # Number of read requests responded to by this memory
system.mem_ctrls.num_writes::writebacks         13456                       # Number of write requests responded to by this memory
system.mem_ctrls.num_writes::total              13456                       # Number of write requests responded to by this memory
system.mem_ctrls.bw_read::cpu0.data          59777260                       # Total read bandwidth from this memory (bytes/s)
system.mem_ctrls.bw_read::total              59777260                       # Total read bandwidth from this memory (bytes/s)
system.mem_ctrls.bw_write::writebacks        56406929                       # Write bandwidth from this memory (bytes/s)
system.mem_ctrls.bw_write::total             56406929                       # Write bandwidth from this memory (bytes/s)
system.mem_ctrls.bw_total::writebacks        56406929                       # Total bandwidth to/from this memory (bytes/s)
system.mem_ctrls.bw_total::cpu0.data         59777260                       # Total bandwidth to/from this memory (bytes/s)
system.mem_ctrls.bw_total::total            116184189                       # Total bandwidth to/from this memory (bytes/s)
system.mem_ctrls.readReqs                       14260                       # Number of read requests accepted
system.mem_ctrls.writeReqs                      13456                       # Number of write requests accepted
system.mem_ctrls.readBursts                     14260                       # Number of DRAM read bursts, including those serviced by the write queue
system.mem_ctrls.writeBursts                    13456                       # Number of DRAM write bursts, including those merged in the write queue
system.mem_ctrls.bytesReadDRAM                 912640                       # Total number of bytes read from DRAM
system.mem_ctrls.bytesReadWrQ                       0                       # Total number of bytes read from write queue
system.mem_ctrls.bytesWritten                  861888                       # Total number of bytes written to DRAM
system.mem_ctrls.bytesReadSys                  912640                       # Total read bytes from the system interface side
system.mem_ctrls.bytesWrittenSys               861184                       # Total written bytes from the system interface side
system.mem_ctrls.servicedByWrQ                      0                       # Number of DRAM read bursts serviced by the write queue
system.mem_ctrls.mergedWrBursts                     0                       # Number of DRAM write bursts merged with an existing one
system.mem_ctrls.neitherReadNorWriteReqs            0                       # Number of requests that are neither read nor write
system.mem_ctrls.perBankRdBursts::0               896                       # Per bank write bursts
system.mem_ctrls.perBankRdBursts::1               896                       # Per bank write bursts
system.mem_ctrls.perBankRdBursts::2               932                       # Per bank write bursts
system.mem_ctrls.perBankRdBursts::3              1047                       # Per bank write bursts
system.mem_ctrls.perBankRdBursts::4              1034                       # Per bank write bursts
system.mem_ctrls.perBankRdBursts::5               839                       # Per bank write bursts
system.mem_ctrls.perBankRdBursts::6               768                       # Per bank write bursts
system.mem_ctrls.perBankRdBursts::7               830                       # Per bank write bursts
system.mem_ctrls.perBankRdBursts::8               896                       # Per bank write bursts
system.mem_ctrls.perBankRdBursts::9               918                       # Per bank write bursts
system.mem_ctrls.perBankRdBursts::10              896                       # Per bank write bursts
system.mem_ctrls.perBankRdBursts::11              896                       # Per bank write bursts
system.mem_ctrls.perBankRdBursts::12              896                       # Per bank write bursts
system.mem_ctrls.perBankRdBursts::13              859                       # Per bank write bursts
system.mem_ctrls.perBankRdBursts::14              791                       # Per bank write bursts
system.mem_ctrls.perBankRdBursts::15              866                       # Per bank write bursts
system.mem_ctrls.perBankWrBursts::0               896                       # Per bank write bursts
system.mem_ctrls.perBankWrBursts::1               896                       # Per bank write bursts
system.mem_ctrls.perBankWrBursts::2               922                       # Per bank write bursts
system.mem_ctrls.perBankWrBursts::3              1014                       # Per bank write bursts
system.mem_ctrls.perBankWrBursts::4              1029                       # Per bank write bursts
system.mem_ctrls.perBankWrBursts::5               836                       # Per bank write bursts
system.mem_ctrls.perBankWrBursts::6               768                       # Per bank write bursts
system.mem_ctrls.perBankWrBursts::7               858                       # Per bank write bursts
system.mem_ctrls.perBankWrBursts::8               874                       # Per bank write bursts
system.mem_ctrls.perBankWrBursts::9               918                       # Per bank write bursts
system.mem_ctrls.perBankWrBursts::10              772                       # Per bank write bursts
system.mem_ctrls.perBankWrBursts::11              768                       # Per bank write bursts
system.mem_ctrls.perBankWrBursts::12              768                       # Per bank write bursts
system.mem_ctrls.perBankWrBursts::13              707                       # Per bank write bursts
system.mem_ctrls.perBankWrBursts::14              661                       # Per bank write bursts
system.mem_ctrls.perBankWrBursts::15              780                       # Per bank write bursts
system.mem_ctrls.numRdRetry                         0                       # Number of times read queue was full causing retry
system.mem_ctrls.numWrRetry                         0                       # Number of times write queue was full causing retry
system.mem_ctrls.totGap                   15267277000                       # Total gap between requests
system.mem_ctrls.readPktSize::0                     0                       # Read request sizes (log2)
system.mem_ctrls.readPktSize::1                     0                       # Read request sizes (log2)
system.mem_ctrls.readPktSize::2                     0                       # Read request sizes (log2)
system.mem_ctrls.readPktSize::3                     0                       # Read request sizes (log2)
system.mem_ctrls.readPktSize::4                     0                       # Read request sizes (log2)
system.mem_ctrls.readPktSize::5                     0                       # Read request sizes (log2)
system.mem_ctrls.readPktSize::6                 14260                       # Read request sizes (log2)
system.mem_ctrls.writePktSize::0                    0                       # Write request sizes (log2)
system.mem_ctrls.writePktSize::1                    0                       # Write request sizes (log2)
system.mem_ctrls.writePktSize::2                    0                       # Write request sizes (log2)
system.mem_ctrls.writePktSize::3                    0                       # Write request sizes (log2)
system.mem_ctrls.writePktSize::4                    0                       # Write request sizes (log2)
system.mem_ctrls.writePktSize::5                    0                       # Write request sizes (log2)
system.mem_ctrls.writePktSize::6                13456                       # Write request sizes (log2)
system.mem_ctrls.rdQLenPdf::0                   14260                       # What read queue length does an incoming req see
system.mem_ctrls.rdQLenPdf::1                       0                       # What read queue length does an incoming req see
system.mem_ctrls.rdQLenPdf::2                       0                       # What read queue length does an incoming req see
system.mem_ctrls.rdQLenPdf::3                       0                       # What read queue length does an incoming req see
system.mem_ctrls.rdQLenPdf::4                       0                       # What read queue length does an incoming req see
system.mem_ctrls.rdQLenPdf::5                       0                       # What read queue length does an incoming req see
system.mem_ctrls.rdQLenPdf::6                       0                       # What read queue length does an incoming req see
system.mem_ctrls.rdQLenPdf::7                       0                       # What read queue length does an incoming req see
system.mem_ctrls.rdQLenPdf::8                       0                       # What read queue length does an incoming req see
system.mem_ctrls.rdQLenPdf::9                       0                       # What read queue length does an incoming req see
system.mem_ctrls.rdQLenPdf::10                      0                       # What read queue length does an incoming req see
system.mem_ctrls.rdQLenPdf::11                      0                       # What read queue length does an incoming req see
system.mem_ctrls.rdQLenPdf::12                      0                       # What read queue length does an incoming req see
system.mem_ctrls.rdQLenPdf::13                      0                       # What read queue length does an incoming req see
system.mem_ctrls.rdQLenPdf::14                      0                       # What read queue length does an incoming req see
system.mem_ctrls.rdQLenPdf::15                      0                       # What read queue length does an incoming req see
system.mem_ctrls.rdQLenPdf::16                      0                       # What read queue length does an incoming req see
system.mem_ctrls.rdQLenPdf::17                      0                       # What read queue length does an incoming req see
system.mem_ctrls.rdQLenPdf::18                      0                       # What read queue length does an incoming req see
system.mem_ctrls.rdQLenPdf::19                      0                       # What read queue length does an incoming req see
system.mem_ctrls.rdQLenPdf::20                      0                       # What read queue length does an incoming req see
system.mem_ctrls.rdQLenPdf::21                      0                       # What read queue length does an incoming req see
system.mem_ctrls.rdQLenPdf::22                      0                       # What read queue length does an incoming req see
system.mem_ctrls.rdQLenPdf::23                      0                       # What read queue length does an incoming req see
system.mem_ctrls.rdQLenPdf::24                      0                       # What read queue length does an incoming req see
system.mem_ctrls.rdQLenPdf::25                      0                       # What read queue length does an incoming req see
system.mem_ctrls.rdQLenPdf::26                      0                       # What read queue length does an incoming req see
system.mem_ctrls.rdQLenPdf::27                      0                       # What read queue length does an incoming req see
system.mem_ctrls.rdQLenPdf::28                      0                       # What read queue length does an incoming req see
system.mem_ctrls.rdQLenPdf::29                      0                       # What read queue length does an incoming req see
system.mem_ctrls.rdQLenPdf::30                      0                       # What read queue length does an incoming req see
system.mem_ctrls.rdQLenPdf::31                      0                       # What read queue length does an incoming req see
system.mem_ctrls.wrQLenPdf::0                       0                       # What write queue length does an incoming req see
system.mem_ctrls.wrQLenPdf::1                       0                       # What write queue length does an incoming req see
system.mem_ctrls.wrQLenPdf::2                       0                       # What write queue length does an incoming req see
system.mem_ctrls.wrQLenPdf::3                       0                       # What write queue length does an incoming req see
system.mem_ctrls.wrQLenPdf::4                       0                       # What write queue length does an incoming req see
system.mem_ctrls.wrQLenPdf::5                       0                       # What write queue length does an incoming req see
system.mem_ctrls.wrQLenPdf::6                       0                       # What write queue length does an incoming req see
system.mem_ctrls.wrQLenPdf::7                       0                       # What write queue length does an incoming req see
system.mem_ctrls.wrQLenPdf::8                       0                       # What write queue length does an incoming req see
system.mem_ctrls.wrQLenPdf::9                       0                       # What write queue length does an incoming req see
system.mem_ctrls.wrQLenPdf::10                      0                       # What write queue length does an incoming req see
system.mem_ctrls.wrQLenPdf::11                      0                       # What write queue length does an incoming req see
system.mem_ctrls.wrQLenPdf::12                      0                       # What write queue length does an incoming req see
system.mem_ctrls.wrQLenPdf::13                      0                       # What write queue length does an incoming req see
system.mem_ctrls.wrQLenPdf::14                      0                       # What write queue length does an incoming req see
system.mem_ctrls.wrQLenPdf::15                    733                       # What write queue length does an incoming req see
system.mem_ctrls.wrQLenPdf::16                    734                       # What write queue length does an incoming req see
system.mem_ctrls.wrQLenPdf::17                    750                       # What write queue length does an incoming req see
system.mem_ctrls.wrQLenPdf::18                    750                       # What write queue length does an incoming req see
system.mem_ctrls.wrQLenPdf::19                    749                       # What write queue length does an incoming req see
system.mem_ctrls.wrQLenPdf::20                    749                       # What write queue length does an incoming req see
system.mem_ctrls.wrQLenPdf::21                    749                       # What write queue length does an incoming req see
system.mem_ctrls.wrQLenPdf::22                    749                       # What write queue length does an incoming req see
system.mem_ctrls.wrQLenPdf::23                    749                       # What write queue length does an incoming req see
system.mem_ctrls.wrQLenPdf::24                    749                       # What write queue length does an incoming req see
system.mem_ctrls.wrQLenPdf::25                    749                       # What write queue length does an incoming req see
system.mem_ctrls.wrQLenPdf::26                    749                       # What write queue length does an incoming req see
system.mem_ctrls.wrQLenPdf::27                    749                       # What write queue length does an incoming req see
system.mem_ctrls.wrQLenPdf::28                    749                       # What write queue length does an incoming req see
system.mem_ctrls.wrQLenPdf::29                    749                       # What write queue length does an incoming req see
system.mem_ctrls.wrQLenPdf::30                    750                       # What write queue length does an incoming req see
system.mem_ctrls.wrQLenPdf::31                    750                       # What write queue length does an incoming req see
system.mem_ctrls.wrQLenPdf::32                    750                       # What write queue length does an incoming req see
system.mem_ctrls.wrQLenPdf::33                      0                       # What write queue length does an incoming req see
system.mem_ctrls.wrQLenPdf::34                      0                       # What write queue length does an incoming req see
system.mem_ctrls.wrQLenPdf::35                      0                       # What write queue length does an incoming req see
system.mem_ctrls.wrQLenPdf::36                      0                       # What write queue length does an incoming req see
system.mem_ctrls.wrQLenPdf::37                      0                       # What write queue length does an incoming req see
system.mem_ctrls.wrQLenPdf::38                      0                       # What write queue length does an incoming req see
system.mem_ctrls.wrQLenPdf::39                      0                       # What write queue length does an incoming req see
system.mem_ctrls.wrQLenPdf::40                      0                       # What write queue length does an incoming req see
system.mem_ctrls.wrQLenPdf::41                      0                       # What write queue length does an incoming req see
system.mem_ctrls.wrQLenPdf::42                      0                       # What write queue length does an incoming req see
system.mem_ctrls.wrQLenPdf::43                      0                       # What write queue length does an incoming req see
system.mem_ctrls.wrQLenPdf::44                      0                       # What write queue length does an incoming req see
system.mem_ctrls.wrQLenPdf::45                      0                       # What write queue length does an incoming req see
system.mem_ctrls.wrQLenPdf::46                      0                       # What write queue length does an incoming req see
system.mem_ctrls.wrQLenPdf::47                      0                       # What write queue length does an incoming req see
system.mem_ctrls.wrQLenPdf::48                      0                       # What write queue length does an incoming req see
system.mem_ctrls.wrQLenPdf::49                      0                       # What write queue length does an incoming req see
system.mem_ctrls.wrQLenPdf::50                      0                       # What write queue length does an incoming req see
system.mem_ctrls.wrQLenPdf::51                      0                       # What write queue length does an incoming req see
system.mem_ctrls.wrQLenPdf::52                      0                       # What write queue length does an incoming req see
system.mem_ctrls.wrQLenPdf::53                      0                       # What write queue length does an incoming req see
system.mem_ctrls.wrQLenPdf::54                      0                       # What write queue length does an incoming req see
system.mem_ctrls.wrQLenPdf::55                      0                       # What write queue length does an incoming req see
system.mem_ctrls.wrQLenPdf::56                      0                       # What write queue length does an incoming req see
system.mem_ctrls.wrQLenPdf::57                      0                       # What write queue length does an incoming req see
system.mem_ctrls.wrQLenPdf::58                      0                       # What write queue length does an incoming req see
system.mem_ctrls.wrQLenPdf::59                      0                       # What write queue length does an incoming req see
system.mem_ctrls.wrQLenPdf::60                      0                       # What write queue length does an incoming req see
system.mem_ctrls.wrQLenPdf::61                      0                       # What write queue length does an incoming req see
system.mem_ctrls.wrQLenPdf::62                      0                       # What write queue length does an incoming req see
system.mem_ctrls.wrQLenPdf::63                      0                       # What write queue length does an incoming req see
system.mem_ctrls.bytesPerActivate::samples         5942                       # Bytes accessed per row activation
system.mem_ctrls.bytesPerActivate::mean    298.684618                       # Bytes accessed per row activation
system.mem_ctrls.bytesPerActivate::gmean   185.449346                       # Bytes accessed per row activation
system.mem_ctrls.bytesPerActivate::stdev   292.926001                       # Bytes accessed per row activation
system.mem_ctrls.bytesPerActivate::0-127         2355     39.63%     39.63% # Bytes accessed per row activation
system.mem_ctrls.bytesPerActivate::128-255          808     13.60%     53.23% # Bytes accessed per row activation
system.mem_ctrls.bytesPerActivate::256-383          561      9.44%     62.67% # Bytes accessed per row activation
system.mem_ctrls.bytesPerActivate::384-511         1456     24.50%     87.18% # Bytes accessed per row activation
system.mem_ctrls.bytesPerActivate::512-639           37      0.62%     87.80% # Bytes accessed per row activation
system.mem_ctrls.bytesPerActivate::640-767           55      0.93%     88.72% # Bytes accessed per row activation
system.mem_ctrls.bytesPerActivate::768-895           49      0.82%     89.55% # Bytes accessed per row activation
system.mem_ctrls.bytesPerActivate::896-1023           89      1.50%     91.05% # Bytes accessed per row activation
system.mem_ctrls.bytesPerActivate::1024-1151          532      8.95%    100.00% # Bytes accessed per row activation
system.mem_ctrls.bytesPerActivate::total         5942                       # Bytes accessed per row activation
system.mem_ctrls.rdPerTurnAround::samples          750                       # Reads before turning the bus around for writes
system.mem_ctrls.rdPerTurnAround::mean      19.028000                       # Reads before turning the bus around for writes
system.mem_ctrls.rdPerTurnAround::gmean     18.358043                       # Reads before turning the bus around for writes
system.mem_ctrls.rdPerTurnAround::stdev     10.614523                       # Reads before turning the bus around for writes
system.mem_ctrls.rdPerTurnAround::16-23           733     97.73%     97.73% # Reads before turning the bus around for writes
system.mem_ctrls.rdPerTurnAround::24-31            10      1.33%     99.07% # Reads before turning the bus around for writes
system.mem_ctrls.rdPerTurnAround::40-47             1      0.13%     99.20% # Reads before turning the bus around for writes
system.mem_ctrls.rdPerTurnAround::96-103            1      0.13%     99.33% # Reads before turning the bus around for writes
system.mem_ctrls.rdPerTurnAround::104-111            1      0.13%     99.47% # Reads before turning the bus around for writes
system.mem_ctrls.rdPerTurnAround::128-135            1      0.13%     99.60% # Reads before turning the bus around for writes
system.mem_ctrls.rdPerTurnAround::136-143            1      0.13%     99.73% # Reads before turning the bus around for writes
system.mem_ctrls.rdPerTurnAround::152-159            1      0.13%     99.87% # Reads before turning the bus around for writes
system.mem_ctrls.rdPerTurnAround::160-167            1      0.13%    100.00% # Reads before turning the bus around for writes
system.mem_ctrls.rdPerTurnAround::total           750                       # Reads before turning the bus around for writes
system.mem_ctrls.wrPerTurnAround::samples          750                       # Writes before turning the bus around for reads
system.mem_ctrls.wrPerTurnAround::mean      17.956000                       # Writes before turning the bus around for reads
system.mem_ctrls.wrPerTurnAround::gmean     17.953460                       # Writes before turning the bus around for reads
system.mem_ctrls.wrPerTurnAround::stdev      0.291280                       # Writes before turning the bus around for reads
system.mem_ctrls.wrPerTurnAround::16               16      2.13%      2.13% # Writes before turning the bus around for reads
system.mem_ctrls.wrPerTurnAround::17                1      0.13%      2.27% # Writes before turning the bus around for reads
system.mem_ctrls.wrPerTurnAround::18              733     97.73%    100.00% # Writes before turning the bus around for reads
system.mem_ctrls.wrPerTurnAround::total           750                       # Writes before turning the bus around for reads
system.mem_ctrls.totQLat                    340872500                       # Total ticks spent queuing
system.mem_ctrls.totMemAccLat               608247500                       # Total ticks spent from burst creation until serviced by the DRAM
system.mem_ctrls.totBusLat                   71300000                       # Total ticks spent in databus transfers
system.mem_ctrls.avgQLat                     23904.10                       # Average queueing delay per DRAM burst
system.mem_ctrls.avgBusLat                    5000.00                       # Average bus latency per DRAM burst
system.mem_ctrls.avgMemAccLat                42654.10                       # Average memory access latency per DRAM burst
system.mem_ctrls.avgRdBW                        59.78                       # Average DRAM read bandwidth in MiByte/s
system.mem_ctrls.avgWrBW                        56.45                       # Average achieved write bandwidth in MiByte/s
system.mem_ctrls.avgRdBWSys                     59.78                       # Average system read bandwidth in MiByte/s
system.mem_ctrls.avgWrBWSys                     56.41                       # Average system write bandwidth in MiByte/s
system.mem_ctrls.peakBW                      12800.00                       # Theoretical peak bandwidth in MiByte/s
system.mem_ctrls.busUtil                         0.91                       # Data bus utilization in percentage
system.mem_ctrls.busUtilRead                     0.47                       # Data bus utilization in percentage for reads
system.mem_ctrls.busUtilWrite                    0.44                       # Data bus utilization in percentage for writes
system.mem_ctrls.avgRdQLen                       1.00                       # Average read queue length when enqueuing
system.mem_ctrls.avgWrQLen                      24.53                       # Average write queue length when enqueuing
system.mem_ctrls.readRowHits                    10362                       # Number of row buffer hits during reads
system.mem_ctrls.writeRowHits                   11424                       # Number of row buffer hits during writes
system.mem_ctrls.readRowHitRate                 72.66                       # Row buffer hit rate for reads
system.mem_ctrls.writeRowHitRate                84.90                       # Row buffer hit rate for writes
system.mem_ctrls.avgGap                     550847.06                       # Average gap between requests
system.mem_ctrls.pageHitRate                    78.60                       # Row buffer hit rate, read and write combined
system.mem_ctrls_0.actEnergy                 26203800                       # Energy for activate commands per rank (pJ)
system.mem_ctrls_0.preEnergy                 13935240                       # Energy for precharge commands per rank (pJ)
system.mem_ctrls_0.readEnergy                51707880                       # Energy for read commands per rank (pJ)
system.mem_ctrls_0.writeEnergy               37683180                       # Energy for write commands per rank (pJ)
system.mem_ctrls_0.refreshEnergy         1264929120.000000                       # Energy for refresh commands per rank (pJ)
system.mem_ctrls_0.actBackEnergy            773048250                       # Energy for active background per rank (pJ)
system.mem_ctrls_0.preBackEnergy             58678560                       # Energy for precharge background per rank (pJ)
system.mem_ctrls_0.actPowerDownEnergy      3647455080                       # Energy for active power-down per rank (pJ)
system.mem_ctrls_0.prePowerDownEnergy      1441918080                       # Energy for precharge power-down per rank (pJ)
system.mem_ctrls_0.selfRefreshEnergy        584157060                       # Energy for self refresh per rank (pJ)
system.mem_ctrls_0.totalEnergy             7899807630                       # Total energy per rank (pJ)
system.mem_ctrls_0.averagePower            517.431687                       # Core power per rank (mW)
system.mem_ctrls_0.totalIdleTime          13414117875                       # Total Idle time Per DRAM Rank
system.mem_ctrls_0.memoryStateTime::IDLE    100353250                       # Time in different power states
system.mem_ctrls_0.memoryStateTime::REF     537102000                       # Time in different power states
system.mem_ctrls_0.memoryStateTime::SREF   1665246000                       # Time in different power states
system.mem_ctrls_0.memoryStateTime::PRE_PDN   3754972000                       # Time in different power states
system.mem_ctrls_0.memoryStateTime::ACT    1210765250                       # Time in different power states
system.mem_ctrls_0.memoryStateTime::ACT_PDN   7998905625                       # Time in different power states
system.mem_ctrls_1.actEnergy                 16214940                       # Energy for activate commands per rank (pJ)
system.mem_ctrls_1.preEnergy                  8614650                       # Energy for precharge commands per rank (pJ)
system.mem_ctrls_1.readEnergy                50108520                       # Energy for read commands per rank (pJ)
system.mem_ctrls_1.writeEnergy               32614560                       # Energy for write commands per rank (pJ)
system.mem_ctrls_1.refreshEnergy         946545600.000000                       # Energy for refresh commands per rank (pJ)
system.mem_ctrls_1.actBackEnergy            471095310                       # Energy for active background per rank (pJ)
system.mem_ctrls_1.preBackEnergy             45041280                       # Energy for precharge background per rank (pJ)
system.mem_ctrls_1.actPowerDownEnergy      3253936200                       # Energy for active power-down per rank (pJ)
system.mem_ctrls_1.prePowerDownEnergy       820763040                       # Energy for precharge power-down per rank (pJ)
system.mem_ctrls_1.selfRefreshEnergy       1281775740                       # Energy for self refresh per rank (pJ)
system.mem_ctrls_1.totalEnergy             6926919480                       # Total energy per rank (pJ)
system.mem_ctrls_1.averagePower            453.708217                       # Core power per rank (mW)
system.mem_ctrls_1.totalIdleTime          14115204625                       # Total Idle time Per DRAM Rank
system.mem_ctrls_1.memoryStateTime::IDLE     70638250                       # Time in different power states
system.mem_ctrls_1.memoryStateTime::REF     401720000                       # Time in different power states
system.mem_ctrls_1.memoryStateTime::SREF   4843250250                       # Time in different power states
system.mem_ctrls_1.memoryStateTime::PRE_PDN   2137340875                       # Time in different power states
system.mem_ctrls_1.memoryStateTime::ACT     678736000                       # Time in different power states
system.mem_ctrls_1.memoryStateTime::ACT_PDN   7135658750                       # Time in different power states
system.pwrStateResidencyTicks::UNDEFINED  15267344125                       # Cumulative time (in ticks) in various power states
system.cpu0.branchPred.lookups                5267513                       # Number of BP lookups
system.cpu0.branchPred.condPredicted          5267513                       # Number of conditional branches predicted
system.cpu0.branchPred.condIncorrect           108164                       # Number of conditional branches incorrect
system.cpu0.branchPred.BTBLookups             4125681                       # Number of BTB lookups
system.cpu0.branchPred.BTBHits                      0                       # Number of BTB hits
system.cpu0.branchPred.BTBCorrect                   0                       # Number of correct BTB predictions (this stat may not work properly.
system.cpu0.branchPred.BTBHitPct             0.000000                       # BTB Hit Percentage
system.cpu0.branchPred.usedRAS                 733679                       # Number of times the RAS was used to get a target.
system.cpu0.branchPred.RASInCorrect               291                       # Number of incorrect RAS predictions.
system.cpu0.branchPred.indirectLookups        4125681                       # Number of indirect predictor lookups.
system.cpu0.branchPred.indirectHits           2541147                       # Number of indirect target hits.
system.cpu0.branchPred.indirectMisses         1584534                       # Number of indirect misses.
system.cpu0.branchPredindirectMispredicted           83                       # Number of mispredicted indirect branches.
system.cpu_voltage_domain.voltage                   1                       # Voltage in Volts
system.cpu_clk_domain.clock                       500                       # Clock period in ticks
system.cpu0.dtb.walker.pwrStateResidencyTicks::UNDEFINED  15267344125                       # Cumulative time (in ticks) in various power states
system.cpu0.dtb.rdAccesses                    8926583                       # TLB accesses on read requests
system.cpu0.dtb.wrAccesses                    2105000                       # TLB accesses on write requests
system.cpu0.dtb.rdMisses                          849                       # TLB misses on read requests
system.cpu0.dtb.wrMisses                            0                       # TLB misses on write requests
system.cpu0.apic_clk_domain.clock                8000                       # Clock period in ticks
system.cpu0.interrupts.pwrStateResidencyTicks::UNDEFINED  15267344125                       # Cumulative time (in ticks) in various power states
system.cpu0.itb.walker.pwrStateResidencyTicks::UNDEFINED  15267344125                       # Cumulative time (in ticks) in various power states
system.cpu0.itb.rdAccesses                          0                       # TLB accesses on read requests
system.cpu0.itb.wrAccesses                    6279817                       # TLB accesses on write requests
system.cpu0.itb.rdMisses                            0                       # TLB misses on read requests
system.cpu0.itb.wrMisses                            3                       # TLB misses on write requests
system.cpu0.workload.numSyscalls                    0                       # Number of system calls
system.cpu0.pwrStateResidencyTicks::ON    15267344125                       # Cumulative time (in ticks) in various power states
system.cpu0.numCycles                        30534688                       # number of cpu cycles simulated
system.cpu0.numWorkItemsStarted                     0                       # number of work items this cpu started
system.cpu0.numWorkItemsCompleted                   0                       # number of work items this cpu completed
system.cpu0.fetch.icacheStallCycles           6339319                       # Number of cycles fetch is stalled on an Icache miss
system.cpu0.fetch.Insts                      46427770                       # Number of instructions fetch has processed
system.cpu0.fetch.Branches                    5267513                       # Number of branches that fetch encountered
system.cpu0.fetch.predictedBranches           3274826                       # Number of branches that fetch has predicted taken
system.cpu0.fetch.Cycles                     24087066                       # Number of cycles fetch has run and was not squashing or blocked
system.cpu0.fetch.SquashCycles                 216538                       # Number of cycles fetch has spent squashing
system.cpu0.fetch.MiscStallCycles                   1                       # Number of cycles fetch has spent waiting on interrupts, or bad addresses, or out of MSHRs
system.cpu0.fetch.PendingTrapStallCycles           33                       # Number of stall cycles due to pending traps
system.cpu0.fetch.CacheLines                  6279814                       # Number of cache lines fetched
system.cpu0.fetch.IcacheSquashes                48736                       # Number of outstanding Icache misses that were squashed
system.cpu0.fetch.rateDist::samples          30534688                       # Number of instructions fetched each cycle (Total)
system.cpu0.fetch.rateDist::mean             2.657713                       # Number of instructions fetched each cycle (Total)
system.cpu0.fetch.rateDist::stdev            3.365901                       # Number of instructions fetched each cycle (Total)
system.cpu0.fetch.rateDist::underflows              0      0.00%      0.00% # Number of instructions fetched each cycle (Total)
system.cpu0.fetch.rateDist::0                16750193     54.86%     54.86% # Number of instructions fetched each cycle (Total)
system.cpu0.fetch.rateDist::1                  717309      2.35%     57.21% # Number of instructions fetched each cycle (Total)
system.cpu0.fetch.rateDist::2                 1665672      5.46%     62.66% # Number of instructions fetched each cycle (Total)
system.cpu0.fetch.rateDist::3                  678101      2.22%     64.88% # Number of instructions fetched each cycle (Total)
system.cpu0.fetch.rateDist::4                 1004018      3.29%     68.17% # Number of instructions fetched each cycle (Total)
system.cpu0.fetch.rateDist::5                 1567216      5.13%     73.30% # Number of instructions fetched each cycle (Total)
system.cpu0.fetch.rateDist::6                  575270      1.88%     75.19% # Number of instructions fetched each cycle (Total)
system.cpu0.fetch.rateDist::7                  849555      2.78%     77.97% # Number of instructions fetched each cycle (Total)
system.cpu0.fetch.rateDist::8                 6727354     22.03%    100.00% # Number of instructions fetched each cycle (Total)
system.cpu0.fetch.rateDist::overflows               0      0.00%    100.00% # Number of instructions fetched each cycle (Total)
system.cpu0.fetch.rateDist::min_value               0                       # Number of instructions fetched each cycle (Total)
system.cpu0.fetch.rateDist::max_value               8                       # Number of instructions fetched each cycle (Total)
system.cpu0.fetch.rateDist::total            30534688                       # Number of instructions fetched each cycle (Total)
system.cpu0.fetch.branchRate                 0.172509                       # Number of branch fetches per cycle
system.cpu0.fetch.rate                       1.520493                       # Number of inst fetches per cycle
system.cpu0.decode.IdleCycles                 4119342                       # Number of cycles decode is idle
system.cpu0.decode.BlockedCycles             15758634                       # Number of cycles decode is blocked
system.cpu0.decode.RunCycles                  6183672                       # Number of cycles decode is running
system.cpu0.decode.UnblockCycles              4364771                       # Number of cycles decode is unblocking
system.cpu0.decode.SquashCycles                108269                       # Number of cycles decode is squashing
system.cpu0.decode.DecodedInsts              77668091                       # Number of instructions handled by decode
system.cpu0.rename.SquashCycles                108269                       # Number of cycles rename is squashing
system.cpu0.rename.IdleCycles                 5831032                       # Number of cycles rename is idle
system.cpu0.rename.BlockCycles                5650960                       # Number of cycles rename is blocking
system.cpu0.rename.serializeStallCycles            13                       # count of cycles rename stalled for serializing inst
system.cpu0.rename.RunCycles                  8778260                       # Number of cycles rename is running
system.cpu0.rename.UnblockCycles             10166154                       # Number of cycles rename is unblocking
system.cpu0.rename.RenamedInsts              77135341                       # Number of instructions processed by rename
system.cpu0.rename.ROBFullEvents               210518                       # Number of times rename has blocked due to ROB full
system.cpu0.rename.IQFullEvents               9090967                       # Number of times rename has blocked due to IQ full
system.cpu0.rename.RenamedOperands           82947671                       # Number of destination operands rename has renamed
system.cpu0.rename.RenameLookups            183259350                       # Number of register rename lookups that rename has made
system.cpu0.rename.int_rename_lookups        60382568                       # Number of integer rename lookups
system.cpu0.rename.fp_rename_lookups         75096356                       # Number of floating rename lookups
system.cpu0.rename.CommittedMaps             70578421                       # Number of HB maps that are committed
system.cpu0.rename.UndoneMaps                12369299                       # Number of HB maps that are undone due to squashing
system.cpu0.rename.serializingInsts                 8                       # count of serializing insts renamed
system.cpu0.rename.tempSerializingInsts             8                       # count of temporary serializing insts renamed
system.cpu0.rename.skidInsts                 23378050                       # count of insts added to the skid buffer
system.cpu0.memDep0.insertedLoads             9513016                       # Number of loads inserted to the mem dependence unit.
system.cpu0.memDep0.insertedStores            2109377                       # Number of stores inserted to the mem dependence unit.
system.cpu0.memDep0.conflictingLoads           426719                       # Number of conflicting loads.
system.cpu0.memDep0.conflictingStores          198682                       # Number of conflicting stores.
system.cpu0.iq.iqInstsAdded                  76478793                       # Number of instructions added to the IQ (excludes non-spec)
system.cpu0.iq.iqNonSpecInstsAdded                  4                       # Number of non-speculative instructions added to the IQ
system.cpu0.iq.iqInstsIssued                 70860317                       # Number of instructions issued
system.cpu0.iq.iqSquashedInstsIssued               25                       # Number of squashed instructions issued
system.cpu0.iq.iqSquashedInstsExamined       10512297                       # Number of squashed instructions iterated over during squash; mainly for profiling
system.cpu0.iq.iqSquashedOperandsExamined     15152074                       # Number of squashed operands that are examined and possibly removed from graph
system.cpu0.iq.iqSquashedNonSpecRemoved             4                       # Number of squashed non-spec instructions that were removed
system.cpu0.iq.issued_per_cycle::samples     30534688                       # Number of insts issued each cycle
system.cpu0.iq.issued_per_cycle::mean        2.320650                       # Number of insts issued each cycle
system.cpu0.iq.issued_per_cycle::stdev       1.959960                       # Number of insts issued each cycle
system.cpu0.iq.issued_per_cycle::underflows            0      0.00%      0.00% # Number of insts issued each cycle
system.cpu0.iq.issued_per_cycle::0            6336485     20.75%     20.75% # Number of insts issued each cycle
system.cpu0.iq.issued_per_cycle::1            6090121     19.94%     40.70% # Number of insts issued each cycle
system.cpu0.iq.issued_per_cycle::2            5666414     18.56%     59.25% # Number of insts issued each cycle
system.cpu0.iq.issued_per_cycle::3            4862124     15.92%     75.18% # Number of insts issued each cycle
system.cpu0.iq.issued_per_cycle::4            2985259      9.78%     84.95% # Number of insts issued each cycle
system.cpu0.iq.issued_per_cycle::5            1979914      6.48%     91.44% # Number of insts issued each cycle
system.cpu0.iq.issued_per_cycle::6            1605649      5.26%     96.70% # Number of insts issued each cycle
system.cpu0.iq.issued_per_cycle::7             693280      2.27%     98.97% # Number of insts issued each cycle
system.cpu0.iq.issued_per_cycle::8             315442      1.03%    100.00% # Number of insts issued each cycle
system.cpu0.iq.issued_per_cycle::overflows            0      0.00%    100.00% # Number of insts issued each cycle
system.cpu0.iq.issued_per_cycle::min_value            0                       # Number of insts issued each cycle
system.cpu0.iq.issued_per_cycle::max_value            8                       # Number of insts issued each cycle
system.cpu0.iq.issued_per_cycle::total       30534688                       # Number of insts issued each cycle
system.cpu0.iq.fu_full::No_OpClass                  0      0.00%      0.00% # attempts to use FU when none available
system.cpu0.iq.fu_full::IntAlu                    633      0.60%      0.60% # attempts to use FU when none available
system.cpu0.iq.fu_full::IntMult                     0      0.00%      0.60% # attempts to use FU when none available
system.cpu0.iq.fu_full::IntDiv                      0      0.00%      0.60% # attempts to use FU when none available
system.cpu0.iq.fu_full::FloatAdd               104426     99.21%     99.81% # attempts to use FU when none available
system.cpu0.iq.fu_full::FloatCmp                    0      0.00%     99.81% # attempts to use FU when none available
system.cpu0.iq.fu_full::FloatCvt                    0      0.00%     99.81% # attempts to use FU when none available
system.cpu0.iq.fu_full::FloatMult                   0      0.00%     99.81% # attempts to use FU when none available
system.cpu0.iq.fu_full::FloatMultAcc                0      0.00%     99.81% # attempts to use FU when none available
system.cpu0.iq.fu_full::FloatDiv                    0      0.00%     99.81% # attempts to use FU when none available
system.cpu0.iq.fu_full::FloatMisc                   0      0.00%     99.81% # attempts to use FU when none available
system.cpu0.iq.fu_full::FloatSqrt                   0      0.00%     99.81% # attempts to use FU when none available
system.cpu0.iq.fu_full::SimdAdd                     0      0.00%     99.81% # attempts to use FU when none available
system.cpu0.iq.fu_full::SimdAddAcc                  0      0.00%     99.81% # attempts to use FU when none available
system.cpu0.iq.fu_full::SimdAlu                     0      0.00%     99.81% # attempts to use FU when none available
system.cpu0.iq.fu_full::SimdCmp                     0      0.00%     99.81% # attempts to use FU when none available
system.cpu0.iq.fu_full::SimdCvt                     0      0.00%     99.81% # attempts to use FU when none available
system.cpu0.iq.fu_full::SimdMisc                    0      0.00%     99.81% # attempts to use FU when none available
system.cpu0.iq.fu_full::SimdMult                    0      0.00%     99.81% # attempts to use FU when none available
system.cpu0.iq.fu_full::SimdMultAcc                 0      0.00%     99.81% # attempts to use FU when none available
system.cpu0.iq.fu_full::SimdShift                   0      0.00%     99.81% # attempts to use FU when none available
system.cpu0.iq.fu_full::SimdShiftAcc                0      0.00%     99.81% # attempts to use FU when none available
system.cpu0.iq.fu_full::SimdSqrt                    0      0.00%     99.81% # attempts to use FU when none available
system.cpu0.iq.fu_full::SimdFloatAdd                0      0.00%     99.81% # attempts to use FU when none available
system.cpu0.iq.fu_full::SimdFloatAlu                0      0.00%     99.81% # attempts to use FU when none available
system.cpu0.iq.fu_full::SimdFloatCmp                0      0.00%     99.81% # attempts to use FU when none available
system.cpu0.iq.fu_full::SimdFloatCvt                0      0.00%     99.81% # attempts to use FU when none available
system.cpu0.iq.fu_full::SimdFloatDiv                0      0.00%     99.81% # attempts to use FU when none available
system.cpu0.iq.fu_full::SimdFloatMisc               0      0.00%     99.81% # attempts to use FU when none available
system.cpu0.iq.fu_full::SimdFloatMult               0      0.00%     99.81% # attempts to use FU when none available
system.cpu0.iq.fu_full::SimdFloatMultAcc            0      0.00%     99.81% # attempts to use FU when none available
system.cpu0.iq.fu_full::SimdFloatSqrt               0      0.00%     99.81% # attempts to use FU when none available
system.cpu0.iq.fu_full::MemRead                   190      0.18%     99.99% # attempts to use FU when none available
system.cpu0.iq.fu_full::MemWrite                    0      0.00%     99.99% # attempts to use FU when none available
system.cpu0.iq.fu_full::FloatMemRead                0      0.00%     99.99% # attempts to use FU when none available
system.cpu0.iq.fu_full::FloatMemWrite              12      0.01%    100.00% # attempts to use FU when none available
system.cpu0.iq.fu_full::IprAccess                   0      0.00%    100.00% # attempts to use FU when none available
system.cpu0.iq.fu_full::InstPrefetch                0      0.00%    100.00% # attempts to use FU when none available
system.cpu0.iq.FU_type_0::No_OpClass             6239      0.01%      0.01% # Type of FU issued
system.cpu0.iq.FU_type_0::IntAlu             36871919     52.03%     52.04% # Type of FU issued
system.cpu0.iq.FU_type_0::IntMult                   0      0.00%     52.04% # Type of FU issued
system.cpu0.iq.FU_type_0::IntDiv                    0      0.00%     52.04% # Type of FU issued
system.cpu0.iq.FU_type_0::FloatAdd           22974096     32.42%     84.47% # Type of FU issued
system.cpu0.iq.FU_type_0::FloatCmp                  0      0.00%     84.47% # Type of FU issued
system.cpu0.iq.FU_type_0::FloatCvt                  0      0.00%     84.47% # Type of FU issued
system.cpu0.iq.FU_type_0::FloatMult                 0      0.00%     84.47% # Type of FU issued
system.cpu0.iq.FU_type_0::FloatMultAcc              0      0.00%     84.47% # Type of FU issued
system.cpu0.iq.FU_type_0::FloatDiv                  0      0.00%     84.47% # Type of FU issued
system.cpu0.iq.FU_type_0::FloatMisc                 0      0.00%     84.47% # Type of FU issued
system.cpu0.iq.FU_type_0::FloatSqrt                 0      0.00%     84.47% # Type of FU issued
system.cpu0.iq.FU_type_0::SimdAdd                   0      0.00%     84.47% # Type of FU issued
system.cpu0.iq.FU_type_0::SimdAddAcc                0      0.00%     84.47% # Type of FU issued
system.cpu0.iq.FU_type_0::SimdAlu                   0      0.00%     84.47% # Type of FU issued
system.cpu0.iq.FU_type_0::SimdCmp                   0      0.00%     84.47% # Type of FU issued
system.cpu0.iq.FU_type_0::SimdCvt                   0      0.00%     84.47% # Type of FU issued
system.cpu0.iq.FU_type_0::SimdMisc                  0      0.00%     84.47% # Type of FU issued
system.cpu0.iq.FU_type_0::SimdMult                  0      0.00%     84.47% # Type of FU issued
system.cpu0.iq.FU_type_0::SimdMultAcc               0      0.00%     84.47% # Type of FU issued
system.cpu0.iq.FU_type_0::SimdShift                 0      0.00%     84.47% # Type of FU issued
system.cpu0.iq.FU_type_0::SimdShiftAcc              0      0.00%     84.47% # Type of FU issued
system.cpu0.iq.FU_type_0::SimdSqrt                  0      0.00%     84.47% # Type of FU issued
system.cpu0.iq.FU_type_0::SimdFloatAdd              0      0.00%     84.47% # Type of FU issued
system.cpu0.iq.FU_type_0::SimdFloatAlu              0      0.00%     84.47% # Type of FU issued
system.cpu0.iq.FU_type_0::SimdFloatCmp              0      0.00%     84.47% # Type of FU issued
system.cpu0.iq.FU_type_0::SimdFloatCvt              0      0.00%     84.47% # Type of FU issued
system.cpu0.iq.FU_type_0::SimdFloatDiv              0      0.00%     84.47% # Type of FU issued
system.cpu0.iq.FU_type_0::SimdFloatMisc             0      0.00%     84.47% # Type of FU issued
system.cpu0.iq.FU_type_0::SimdFloatMult             0      0.00%     84.47% # Type of FU issued
system.cpu0.iq.FU_type_0::SimdFloatMultAcc            0      0.00%     84.47% # Type of FU issued
system.cpu0.iq.FU_type_0::SimdFloatSqrt             0      0.00%     84.47% # Type of FU issued
system.cpu0.iq.FU_type_0::MemRead             1968058      2.78%     87.24% # Type of FU issued
system.cpu0.iq.FU_type_0::MemWrite            1477586      2.09%     89.33% # Type of FU issued
system.cpu0.iq.FU_type_0::FloatMemRead        6934459      9.79%     99.11% # Type of FU issued
system.cpu0.iq.FU_type_0::FloatMemWrite        627960      0.89%    100.00% # Type of FU issued
system.cpu0.iq.FU_type_0::IprAccess                 0      0.00%    100.00% # Type of FU issued
system.cpu0.iq.FU_type_0::InstPrefetch              0      0.00%    100.00% # Type of FU issued
system.cpu0.iq.FU_type_0::total              70860317                       # Type of FU issued
system.cpu0.iq.rate                          2.320650                       # Inst issue rate
system.cpu0.iq.fu_busy_cnt                     105261                       # FU busy when requested
system.cpu0.iq.fu_busy_rate                  0.001485                       # FU busy rate (busy events/executed inst)
system.cpu0.iq.int_inst_queue_reads          97639180                       # Number of integer instruction queue reads
system.cpu0.iq.int_inst_queue_writes         37589192                       # Number of integer instruction queue writes
system.cpu0.iq.int_inst_queue_wakeup_accesses     33483324                       # Number of integer instruction queue wakeup accesses
system.cpu0.iq.fp_inst_queue_reads           74721422                       # Number of floating instruction queue reads
system.cpu0.iq.fp_inst_queue_writes          49402006                       # Number of floating instruction queue writes
system.cpu0.iq.fp_inst_queue_wakeup_accesses     37158795                       # Number of floating instruction queue wakeup accesses
system.cpu0.iq.vec_inst_queue_reads                 0                       # Number of vector instruction queue reads
system.cpu0.iq.vec_inst_queue_writes                0                       # Number of vector instruction queue writes
system.cpu0.iq.vec_inst_queue_wakeup_accesses            0                       # Number of vector instruction queue wakeup accesses
system.cpu0.iq.int_alu_accesses              33546398                       # Number of integer alu accesses
system.cpu0.iq.fp_alu_accesses               37412941                       # Number of floating point alu accesses
system.cpu0.iq.vec_alu_accesses                     0                       # Number of vector alu accesses
system.cpu0.iew.lsq.thread0.forwLoads          420452                       # Number of loads that had data forwarded from stores
system.cpu0.iew.lsq.thread0.invAddrLoads            0                       # Number of loads ignored due to an invalid address
system.cpu0.iew.lsq.thread0.squashedLoads      1391080                       # Number of loads squashed
system.cpu0.iew.lsq.thread0.ignoredResponses           12                       # Number of memory responses ignored because the instruction is squashed
system.cpu0.iew.lsq.thread0.memOrderViolation          104                       # Number of memory ordering violations
system.cpu0.iew.lsq.thread0.squashedStores         9333                       # Number of stores squashed
system.cpu0.iew.lsq.thread0.invAddrSwpfs            0                       # Number of software prefetches ignored due to an invalid address
system.cpu0.iew.lsq.thread0.blockedLoads            0                       # Number of blocked loads due to partial load-store forwarding
system.cpu0.iew.lsq.thread0.rescheduledLoads            0                       # Number of loads that were rescheduled
system.cpu0.iew.lsq.thread0.cacheBlocked            0                       # Number of times an access to memory failed due to the cache being blocked
system.cpu0.iew.iewIdleCycles                       0                       # Number of cycles IEW is idle
system.cpu0.iew.iewSquashCycles                108269                       # Number of cycles IEW is squashing
system.cpu0.iew.iewBlockCycles                3287935                       # Number of cycles IEW is blocking
system.cpu0.iew.iewUnblockCycles               121893                       # Number of cycles IEW is unblocking
system.cpu0.iew.iewDispatchedInsts           76478797                       # Number of instructions dispatched to IQ
system.cpu0.iew.iewDispSquashedInsts               48                       # Number of squashed instructions skipped by dispatch
system.cpu0.iew.iewDispLoadInsts              9513016                       # Number of dispatched load instructions
system.cpu0.iew.iewDispStoreInsts             2109377                       # Number of dispatched store instructions
system.cpu0.iew.iewDispNonSpecInsts                 4                       # Number of dispatched non-speculative instructions
system.cpu0.iew.iewIQFullEvents                108447                       # Number of times the IQ has become full, causing a stall
system.cpu0.iew.iewLSQFullEvents                    0                       # Number of times the LSQ has become full, causing a stall
system.cpu0.iew.memOrderViolationEvents           104                       # Number of memory order violations
system.cpu0.iew.predictedTakenIncorrect         63161                       # Number of branches that were predicted taken incorrectly
system.cpu0.iew.predictedNotTakenIncorrect        45328                       # Number of branches that were predicted not taken incorrectly
system.cpu0.iew.branchMispredicts              108489                       # Number of branch mispredicts detected at execute
system.cpu0.iew.iewExecutedInsts             70652177                       # Number of executed instructions
system.cpu0.iew.iewExecLoadInsts              8900171                       # Number of load instructions executed
system.cpu0.iew.iewExecSquashedInsts           208134                       # Number of squashed instructions skipped in execute
system.cpu0.iew.exec_swp                            0                       # number of swp insts executed
system.cpu0.iew.exec_nop                            0                       # number of nop insts executed
system.cpu0.iew.exec_refs                    11005171                       # number of memory reference insts executed
system.cpu0.iew.exec_branches                 4725798                       # Number of branches executed
system.cpu0.iew.exec_stores                   2105000                       # Number of stores executed
system.cpu0.iew.exec_rate                    2.313833                       # Inst execution rate
system.cpu0.iew.wb_sent                      70647384                       # cumulative count of insts sent to commit
system.cpu0.iew.wb_count                     70642119                       # cumulative count of insts written-back
system.cpu0.iew.wb_producers                 52606398                       # num instructions producing a value
system.cpu0.iew.wb_consumers                 92591034                       # num instructions consuming a value
system.cpu0.iew.wb_rate                      2.313504                       # insts written-back per cycle
system.cpu0.iew.wb_fanout                    0.568159                       # average fanout of values written-back
system.cpu0.commit.commitSquashedInsts       10512297                       # The number of squashed insts skipped by commit
system.cpu0.commit.branchMispredicts           108165                       # The number of times a branch was mispredicted
system.cpu0.commit.committed_per_cycle::samples     29190050                       # Number of insts commited each cycle
system.cpu0.commit.committed_per_cycle::mean     2.259898                       # Number of insts commited each cycle
system.cpu0.commit.committed_per_cycle::stdev     2.863241                       # Number of insts commited each cycle
system.cpu0.commit.committed_per_cycle::underflows            0      0.00%      0.00% # Number of insts commited each cycle
system.cpu0.commit.committed_per_cycle::0     10919922     37.41%     37.41% # Number of insts commited each cycle
system.cpu0.commit.committed_per_cycle::1      7529687     25.80%     63.21% # Number of insts commited each cycle
system.cpu0.commit.committed_per_cycle::2      1058495      3.63%     66.83% # Number of insts commited each cycle
system.cpu0.commit.committed_per_cycle::3      2907283      9.96%     76.79% # Number of insts commited each cycle
system.cpu0.commit.committed_per_cycle::4      1143006      3.92%     80.71% # Number of insts commited each cycle
system.cpu0.commit.committed_per_cycle::5       217279      0.74%     81.45% # Number of insts commited each cycle
system.cpu0.commit.committed_per_cycle::6       421967      1.45%     82.90% # Number of insts commited each cycle
system.cpu0.commit.committed_per_cycle::7       531495      1.82%     84.72% # Number of insts commited each cycle
system.cpu0.commit.committed_per_cycle::8      4460916     15.28%    100.00% # Number of insts commited each cycle
system.cpu0.commit.committed_per_cycle::overflows            0      0.00%    100.00% # Number of insts commited each cycle
system.cpu0.commit.committed_per_cycle::min_value            0                       # Number of insts commited each cycle
system.cpu0.commit.committed_per_cycle::max_value            8                       # Number of insts commited each cycle
system.cpu0.commit.committed_per_cycle::total     29190050                       # Number of insts commited each cycle
system.cpu0.commit.committedInsts            37155977                       # Number of instructions committed
system.cpu0.commit.committedOps              65966540                       # Number of ops (including micro ops) committed
system.cpu0.commit.swp_count                        0                       # Number of s/w prefetches committed
system.cpu0.commit.refs                      10221988                       # Number of memory references committed
system.cpu0.commit.loads                      8121934                       # Number of loads committed
system.cpu0.commit.membars                          0                       # Number of memory barriers committed
system.cpu0.commit.branches                   4615830                       # Number of branches committed
system.cpu0.commit.vec_insts                        0                       # Number of committed Vector instructions.
system.cpu0.commit.fp_insts                  34109379                       # Number of committed floating point instructions.
system.cpu0.commit.int_insts                 40952198                       # Number of committed integer instructions.
system.cpu0.commit.function_calls              627891                       # Number of function calls committed.
system.cpu0.commit.op_class_0::No_OpClass         5995      0.01%      0.01% # Class of committed instruction
system.cpu0.commit.op_class_0::IntAlu        34288612     51.98%     51.99% # Class of committed instruction
system.cpu0.commit.op_class_0::IntMult              0      0.00%     51.99% # Class of committed instruction
system.cpu0.commit.op_class_0::IntDiv               0      0.00%     51.99% # Class of committed instruction
system.cpu0.commit.op_class_0::FloatAdd      21449945     32.52%     84.50% # Class of committed instruction
system.cpu0.commit.op_class_0::FloatCmp             0      0.00%     84.50% # Class of committed instruction
system.cpu0.commit.op_class_0::FloatCvt             0      0.00%     84.50% # Class of committed instruction
system.cpu0.commit.op_class_0::FloatMult            0      0.00%     84.50% # Class of committed instruction
system.cpu0.commit.op_class_0::FloatMultAcc            0      0.00%     84.50% # Class of committed instruction
system.cpu0.commit.op_class_0::FloatDiv             0      0.00%     84.50% # Class of committed instruction
system.cpu0.commit.op_class_0::FloatMisc            0      0.00%     84.50% # Class of committed instruction
system.cpu0.commit.op_class_0::FloatSqrt            0      0.00%     84.50% # Class of committed instruction
system.cpu0.commit.op_class_0::SimdAdd              0      0.00%     84.50% # Class of committed instruction
system.cpu0.commit.op_class_0::SimdAddAcc            0      0.00%     84.50% # Class of committed instruction
system.cpu0.commit.op_class_0::SimdAlu              0      0.00%     84.50% # Class of committed instruction
system.cpu0.commit.op_class_0::SimdCmp              0      0.00%     84.50% # Class of committed instruction
system.cpu0.commit.op_class_0::SimdCvt              0      0.00%     84.50% # Class of committed instruction
system.cpu0.commit.op_class_0::SimdMisc             0      0.00%     84.50% # Class of committed instruction
system.cpu0.commit.op_class_0::SimdMult             0      0.00%     84.50% # Class of committed instruction
system.cpu0.commit.op_class_0::SimdMultAcc            0      0.00%     84.50% # Class of committed instruction
system.cpu0.commit.op_class_0::SimdShift            0      0.00%     84.50% # Class of committed instruction
system.cpu0.commit.op_class_0::SimdShiftAcc            0      0.00%     84.50% # Class of committed instruction
system.cpu0.commit.op_class_0::SimdSqrt             0      0.00%     84.50% # Class of committed instruction
system.cpu0.commit.op_class_0::SimdFloatAdd            0      0.00%     84.50% # Class of committed instruction
system.cpu0.commit.op_class_0::SimdFloatAlu            0      0.00%     84.50% # Class of committed instruction
system.cpu0.commit.op_class_0::SimdFloatCmp            0      0.00%     84.50% # Class of committed instruction
system.cpu0.commit.op_class_0::SimdFloatCvt            0      0.00%     84.50% # Class of committed instruction
system.cpu0.commit.op_class_0::SimdFloatDiv            0      0.00%     84.50% # Class of committed instruction
system.cpu0.commit.op_class_0::SimdFloatMisc            0      0.00%     84.50% # Class of committed instruction
system.cpu0.commit.op_class_0::SimdFloatMult            0      0.00%     84.50% # Class of committed instruction
system.cpu0.commit.op_class_0::SimdFloatMultAcc            0      0.00%     84.50% # Class of committed instruction
system.cpu0.commit.op_class_0::SimdFloatSqrt            0      0.00%     84.50% # Class of committed instruction
system.cpu0.commit.op_class_0::MemRead        1951060      2.96%     87.46% # Class of committed instruction
system.cpu0.commit.op_class_0::MemWrite       1472160      2.23%     89.69% # Class of committed instruction
system.cpu0.commit.op_class_0::FloatMemRead      6170874      9.35%     99.05% # Class of committed instruction
system.cpu0.commit.op_class_0::FloatMemWrite       627894      0.95%    100.00% # Class of committed instruction
system.cpu0.commit.op_class_0::IprAccess            0      0.00%    100.00% # Class of committed instruction
system.cpu0.commit.op_class_0::InstPrefetch            0      0.00%    100.00% # Class of committed instruction
system.cpu0.commit.op_class_0::total         65966540                       # Class of committed instruction
system.cpu0.commit.bw_lim_events              4460916                       # number cycles where commit BW limit reached
system.cpu0.rob.rob_reads                   101207971                       # The number of ROB reads
system.cpu0.rob.rob_writes                  154302294                       # The number of ROB writes
system.cpu0.committedInsts                   37155977                       # Number of Instructions Simulated
system.cpu0.committedOps                     65966540                       # Number of Ops (including micro ops) Simulated
system.cpu0.cpi                              0.821797                       # CPI: Cycles Per Instruction
system.cpu0.cpi_total                        0.821797                       # CPI: Total CPI of All Threads
system.cpu0.ipc                              1.216845                       # IPC: Instructions Per Cycle
system.cpu0.ipc_total                        1.216845                       # IPC: Total IPC of All Threads
system.cpu0.int_regfile_reads                56271076                       # number of integer regfile reads
system.cpu0.int_regfile_writes               28629951                       # number of integer regfile writes
system.cpu0.fp_regfile_reads                 64766864                       # number of floating regfile reads
system.cpu0.fp_regfile_writes                33294926                       # number of floating regfile writes
system.cpu0.cc_regfile_reads                 20642929                       # number of cc regfile reads
system.cpu0.cc_regfile_writes                13428774                       # number of cc regfile writes
system.cpu0.misc_regfile_reads               24167359                       # number of misc regfile reads
system.cpu0.dcache.tags.pwrStateResidencyTicks::UNDEFINED  15267344125                       # Cumulative time (in ticks) in various power states
system.cpu0.dcache.tags.replacements            14281                       # number of replacements
system.cpu0.dcache.tags.tagsinuse                1024                       # Cycle average of tags in use
system.cpu0.dcache.tags.total_refs            1098035                       # Total number of references to valid blocks.
system.cpu0.dcache.tags.sampled_refs            14281                       # Sample count of references to valid blocks.
system.cpu0.dcache.tags.avg_refs            76.887823                       # Average number of references to valid blocks.
system.cpu0.dcache.tags.warmup_cycle                0                       # Cycle when the warmup percentage was hit.
system.cpu0.dcache.tags.occ_blocks::cpu0.data         1024                       # Average occupied blocks per requestor
system.cpu0.dcache.tags.occ_percent::cpu0.data            1                       # Average percentage of cache occupancy
system.cpu0.dcache.tags.occ_percent::total            1                       # Average percentage of cache occupancy
system.cpu0.dcache.tags.occ_task_id_blocks::1024         1024                       # Occupied blocks per task id
system.cpu0.dcache.tags.age_task_id_blocks_1024::0            8                       # Occupied blocks per task id
system.cpu0.dcache.tags.age_task_id_blocks_1024::1           83                       # Occupied blocks per task id
system.cpu0.dcache.tags.age_task_id_blocks_1024::2          697                       # Occupied blocks per task id
system.cpu0.dcache.tags.age_task_id_blocks_1024::3           15                       # Occupied blocks per task id
system.cpu0.dcache.tags.age_task_id_blocks_1024::4          221                       # Occupied blocks per task id
system.cpu0.dcache.tags.occ_task_id_percent::1024            1                       # Percentage of cache occupancy per task id
system.cpu0.dcache.tags.tag_accesses         42436545                       # Number of tag accesses
system.cpu0.dcache.tags.data_accesses        42436545                       # Number of data accesses
system.cpu0.dcache.pwrStateResidencyTicks::UNDEFINED  15267344125                       # Cumulative time (in ticks) in various power states
system.cpu0.dcache.ReadReq_hits::cpu0.data      8491120                       # number of ReadReq hits
system.cpu0.dcache.ReadReq_hits::total        8491120                       # number of ReadReq hits
system.cpu0.dcache.WriteReq_hits::cpu0.data      2100054                       # number of WriteReq hits
system.cpu0.dcache.WriteReq_hits::total       2100054                       # number of WriteReq hits
system.cpu0.dcache.demand_hits::cpu0.data     10591174                       # number of demand (read+write) hits
system.cpu0.dcache.demand_hits::total        10591174                       # number of demand (read+write) hits
system.cpu0.dcache.overall_hits::cpu0.data     10591174                       # number of overall hits
system.cpu0.dcache.overall_hits::total       10591174                       # number of overall hits
system.cpu0.dcache.ReadReq_misses::cpu0.data        14392                       # number of ReadReq misses
system.cpu0.dcache.ReadReq_misses::total        14392                       # number of ReadReq misses
system.cpu0.dcache.demand_misses::cpu0.data        14392                       # number of demand (read+write) misses
system.cpu0.dcache.demand_misses::total         14392                       # number of demand (read+write) misses
system.cpu0.dcache.overall_misses::cpu0.data        14392                       # number of overall misses
system.cpu0.dcache.overall_misses::total        14392                       # number of overall misses
system.cpu0.dcache.ReadReq_miss_latency::cpu0.data   1380009000                       # number of ReadReq miss cycles
system.cpu0.dcache.ReadReq_miss_latency::total   1380009000                       # number of ReadReq miss cycles
system.cpu0.dcache.demand_miss_latency::cpu0.data   1380009000                       # number of demand (read+write) miss cycles
system.cpu0.dcache.demand_miss_latency::total   1380009000                       # number of demand (read+write) miss cycles
system.cpu0.dcache.overall_miss_latency::cpu0.data   1380009000                       # number of overall miss cycles
system.cpu0.dcache.overall_miss_latency::total   1380009000                       # number of overall miss cycles
system.cpu0.dcache.ReadReq_accesses::cpu0.data      8505512                       # number of ReadReq accesses(hits+misses)
system.cpu0.dcache.ReadReq_accesses::total      8505512                       # number of ReadReq accesses(hits+misses)
system.cpu0.dcache.WriteReq_accesses::cpu0.data      2100054                       # number of WriteReq accesses(hits+misses)
system.cpu0.dcache.WriteReq_accesses::total      2100054                       # number of WriteReq accesses(hits+misses)
system.cpu0.dcache.demand_accesses::cpu0.data     10605566                       # number of demand (read+write) accesses
system.cpu0.dcache.demand_accesses::total     10605566                       # number of demand (read+write) accesses
system.cpu0.dcache.overall_accesses::cpu0.data     10605566                       # number of overall (read+write) accesses
system.cpu0.dcache.overall_accesses::total     10605566                       # number of overall (read+write) accesses
system.cpu0.dcache.ReadReq_miss_rate::cpu0.data     0.001692                       # miss rate for ReadReq accesses
system.cpu0.dcache.ReadReq_miss_rate::total     0.001692                       # miss rate for ReadReq accesses
system.cpu0.dcache.demand_miss_rate::cpu0.data     0.001357                       # miss rate for demand accesses
system.cpu0.dcache.demand_miss_rate::total     0.001357                       # miss rate for demand accesses
system.cpu0.dcache.overall_miss_rate::cpu0.data     0.001357                       # miss rate for overall accesses
system.cpu0.dcache.overall_miss_rate::total     0.001357                       # miss rate for overall accesses
system.cpu0.dcache.ReadReq_avg_miss_latency::cpu0.data 95887.229016                       # average ReadReq miss latency
system.cpu0.dcache.ReadReq_avg_miss_latency::total 95887.229016                       # average ReadReq miss latency
system.cpu0.dcache.demand_avg_miss_latency::cpu0.data 95887.229016                       # average overall miss latency
system.cpu0.dcache.demand_avg_miss_latency::total 95887.229016                       # average overall miss latency
system.cpu0.dcache.overall_avg_miss_latency::cpu0.data 95887.229016                       # average overall miss latency
system.cpu0.dcache.overall_avg_miss_latency::total 95887.229016                       # average overall miss latency
system.cpu0.dcache.blocked_cycles::no_mshrs            0                       # number of cycles access was blocked
system.cpu0.dcache.blocked_cycles::no_targets            0                       # number of cycles access was blocked
system.cpu0.dcache.blocked::no_mshrs                0                       # number of cycles access was blocked
system.cpu0.dcache.blocked::no_targets              0                       # number of cycles access was blocked
system.cpu0.dcache.avg_blocked_cycles::no_mshrs          nan                       # average number of cycles each access was blocked
system.cpu0.dcache.avg_blocked_cycles::no_targets          nan                       # average number of cycles each access was blocked
system.cpu0.dcache.writebacks::writebacks        13459                       # number of writebacks
system.cpu0.dcache.writebacks::total            13459                       # number of writebacks
system.cpu0.dcache.ReadReq_mshr_hits::cpu0.data          111                       # number of ReadReq MSHR hits
system.cpu0.dcache.ReadReq_mshr_hits::total          111                       # number of ReadReq MSHR hits
system.cpu0.dcache.demand_mshr_hits::cpu0.data          111                       # number of demand (read+write) MSHR hits
system.cpu0.dcache.demand_mshr_hits::total          111                       # number of demand (read+write) MSHR hits
[...]
system.l2.tags.pwrStateResidencyTicks::UNDEFINED  15267344125                       # Cumulative time (in ticks) in various power states
system.l2.tags.replacements                     14260                       # number of replacements
system.l2.tags.tagsinuse                        49152                       # Cycle average of tags in use
system.l2.tags.total_refs                       14260                       # Total number of references to valid blocks.
system.l2.tags.sampled_refs                     14260                       # Sample count of references to valid blocks.
system.l2.tags.avg_refs                             1                       # Average number of references to valid blocks.
system.l2.tags.warmup_cycle                         0                       # Cycle when the warmup percentage was hit.
system.l2.tags.occ_blocks::cpu0.data            49152                       # Average occupied blocks per requestor
system.l2.tags.occ_percent::cpu0.data               1                       # Average percentage of cache occupancy
system.l2.tags.occ_percent::total                   1                       # Average percentage of cache occupancy
system.l2.tags.occ_task_id_blocks::1024         49152                       # Occupied blocks per task id
system.l2.tags.age_task_id_blocks_1024::0            8                       # Occupied blocks per task id
system.l2.tags.age_task_id_blocks_1024::1           83                       # Occupied blocks per task id
system.l2.tags.age_task_id_blocks_1024::2          838                       # Occupied blocks per task id
system.l2.tags.age_task_id_blocks_1024::3         8402                       # Occupied blocks per task id
system.l2.tags.age_task_id_blocks_1024::4        39821                       # Occupied blocks per task id
system.l2.tags.occ_task_id_percent::1024            1                       # Percentage of cache occupancy per task id
system.l2.tags.tag_accesses                    357004                       # Number of tag accesses
system.l2.tags.data_accesses                   357004                       # Number of data accesses
system.l2.pwrStateResidencyTicks::UNDEFINED  15267344125                       # Cumulative time (in ticks) in various power states
system.l2.WritebackDirty_hits::writebacks        13459                       # number of WritebackDirty hits
system.l2.WritebackDirty_hits::total            13459                       # number of WritebackDirty hits
system.l2.ReadSharedReq_hits::cpu0.data            21                       # number of ReadSharedReq hits
system.l2.ReadSharedReq_hits::total                21                       # number of ReadSharedReq hits
system.l2.demand_hits::cpu0.data                   21                       # number of demand (read+write) hits
system.l2.demand_hits::total                       21                       # number of demand (read+write) hits
system.l2.overall_hits::cpu0.data                  21                       # number of overall hits
system.l2.overall_hits::total                      21                       # number of overall hits
system.l2.ReadSharedReq_misses::cpu0.data        14260                       # number of ReadSharedReq misses
system.l2.ReadSharedReq_misses::total           14260                       # number of ReadSharedReq misses
system.l2.demand_misses::cpu0.data              14260                       # number of demand (read+write) misses
system.l2.demand_misses::total                  14260                       # number of demand (read+write) misses
system.l2.overall_misses::cpu0.data             14260                       # number of overall misses
system.l2.overall_misses::total                 14260                       # number of overall misses
system.l2.ReadSharedReq_miss_latency::cpu0.data   1336629000                       # number of ReadSharedReq miss cycles
system.l2.ReadSharedReq_miss_latency::total   1336629000                       # number of ReadSharedReq miss cycles
system.l2.demand_miss_latency::cpu0.data   1336629000                       # number of demand (read+write) miss cycles
system.l2.demand_miss_latency::total       1336629000                       # number of demand (read+write) miss cycles
system.l2.overall_miss_latency::cpu0.data   1336629000                       # number of overall miss cycles
system.l2.overall_miss_latency::total      1336629000                       # number of overall miss cycles
system.l2.WritebackDirty_accesses::writebacks        13459                       # number of WritebackDirty accesses(hits+misses)
system.l2.WritebackDirty_accesses::total        13459                       # number of WritebackDirty accesses(hits+misses)
system.l2.ReadSharedReq_accesses::cpu0.data        14281                       # number of ReadSharedReq accesses(hits+misses)
system.l2.ReadSharedReq_accesses::total         14281                       # number of ReadSharedReq accesses(hits+misses)
system.l2.demand_accesses::cpu0.data            14281                       # number of demand (read+write) accesses
system.l2.demand_accesses::total                14281                       # number of demand (read+write) accesses
system.l2.overall_accesses::cpu0.data           14281                       # number of overall (read+write) accesses
system.l2.overall_accesses::total               14281                       # number of overall (read+write) accesses
system.l2.ReadSharedReq_miss_rate::cpu0.data     0.998530                       # miss rate for ReadSharedReq accesses
system.l2.ReadSharedReq_miss_rate::total     0.998530                       # miss rate for ReadSharedReq accesses
system.l2.demand_miss_rate::cpu0.data        0.998530                       # miss rate for demand accesses
system.l2.demand_miss_rate::total            0.998530                       # miss rate for demand accesses
system.l2.overall_miss_rate::cpu0.data       0.998530                       # miss rate for overall accesses
system.l2.overall_miss_rate::total           0.998530                       # miss rate for overall accesses
system.l2.ReadSharedReq_avg_miss_latency::cpu0.data 93732.748948                       # average ReadSharedReq miss latency
system.l2.ReadSharedReq_avg_miss_latency::total 93732.748948                       # average ReadSharedReq miss latency
system.l2.demand_avg_miss_latency::cpu0.data 93732.748948                       # average overall miss latency
system.l2.demand_avg_miss_latency::total 93732.748948                       # average overall miss latency
system.l2.overall_avg_miss_latency::cpu0.data 93732.748948                       # average overall miss latency
system.l2.overall_avg_miss_latency::total 93732.748948                       # average overall miss latency
system.l2.blocked_cycles::no_mshrs                  0                       # number of cycles access was blocked
system.l2.blocked_cycles::no_targets                0                       # number of cycles access was blocked
system.l2.blocked::no_mshrs                         0                       # number of cycles access was blocked
system.l2.blocked::no_targets                       0                       # number of cycles access was blocked
system.l2.avg_blocked_cycles::no_mshrs            nan                       # average number of cycles each access was blocked
system.l2.avg_blocked_cycles::no_targets          nan                       # average number of cycles each access was blocked
system.l2.writebacks::writebacks                13456                       # number of writebacks
system.l2.writebacks::total                     13456                       # number of writebacks
system.l2.ReadSharedReq_mshr_misses::cpu0.data        14260                       # number of ReadSharedReq MSHR misses
system.l2.ReadSharedReq_mshr_misses::total        14260                       # number of ReadSharedReq MSHR misses
system.l2.demand_mshr_misses::cpu0.data         14260                       # number of demand (read+write) MSHR misses
system.l2.demand_mshr_misses::total             14260                       # number of demand (read+write) MSHR misses
system.l2.overall_mshr_misses::cpu0.data        14260                       # number of overall MSHR misses
system.l2.overall_mshr_misses::total            14260                       # number of overall MSHR misses
system.l2.ReadSharedReq_mshr_miss_latency::cpu0.data   1194029000                       # number of ReadSharedReq MSHR miss cycles
system.l2.ReadSharedReq_mshr_miss_latency::total   1194029000                       # number of ReadSharedReq MSHR miss cycles
system.l2.demand_mshr_miss_latency::cpu0.data   1194029000                       # number of demand (read+write) MSHR miss cycles
system.l2.demand_mshr_miss_latency::total   1194029000                       # number of demand (read+write) MSHR miss cycles
system.l2.overall_mshr_miss_latency::cpu0.data   1194029000                       # number of overall MSHR miss cycles
system.l2.overall_mshr_miss_latency::total   1194029000                       # number of overall MSHR miss cycles
system.l2.ReadSharedReq_mshr_miss_rate::cpu0.data     0.998530                       # mshr miss rate for ReadSharedReq accesses
system.l2.ReadSharedReq_mshr_miss_rate::total     0.998530                       # mshr miss rate for ReadSharedReq accesses
system.l2.demand_mshr_miss_rate::cpu0.data     0.998530                       # mshr miss rate for demand accesses
system.l2.demand_mshr_miss_rate::total       0.998530                       # mshr miss rate for demand accesses
system.l2.overall_mshr_miss_rate::cpu0.data     0.998530                       # mshr miss rate for overall accesses
system.l2.overall_mshr_miss_rate::total      0.998530                       # mshr miss rate for overall accesses
system.l2.ReadSharedReq_avg_mshr_miss_latency::cpu0.data 83732.748948                       # average ReadSharedReq mshr miss latency
system.l2.ReadSharedReq_avg_mshr_miss_latency::total 83732.748948                       # average ReadSharedReq mshr miss latency
system.l2.demand_avg_mshr_miss_latency::cpu0.data 83732.748948                       # average overall mshr miss latency
system.l2.demand_avg_mshr_miss_latency::total 83732.748948                       # average overall mshr miss latency
system.l2.overall_avg_mshr_miss_latency::cpu0.data 83732.748948                       # average overall mshr miss latency
system.l2.overall_avg_mshr_miss_latency::total 83732.748948                       # average overall mshr miss latency
system.membus.snoop_filter.tot_requests         28520                       # Total number of requests made to the snoop filter.
system.membus.snoop_filter.hit_single_requests        14260                       # Number of requests hitting in the snoop filter with a single holder of the requested data.
system.membus.snoop_filter.hit_multi_requests            0                       # Number of requests hitting in the snoop filter with multiple (>1) holders of the requested data.
system.membus.snoop_filter.tot_snoops               0                       # Total number of snoops made to the snoop filter.
system.membus.snoop_filter.hit_single_snoops            0                       # Number of snoops hitting in the snoop filter with a single holder of the requested data.
system.membus.snoop_filter.hit_multi_snoops            0                       # Number of snoops hitting in the snoop filter with multiple (>1) holders of the requested data.
system.membus.pwrStateResidencyTicks::UNDEFINED  15267344125                       # Cumulative time (in ticks) in various power states
system.membus.trans_dist::ReadResp              14260                       # Transaction distribution
system.membus.trans_dist::WritebackDirty        13456                       # Transaction distribution
system.membus.trans_dist::CleanEvict              804                       # Transaction distribution
system.membus.trans_dist::ReadSharedReq         14260                       # Transaction distribution
system.membus.pkt_count_system.l2.mem_side::system.mem_ctrls.port        42780                       # Packet count per connected master and slave (bytes)
system.membus.pkt_count_system.l2.mem_side::total        42780                       # Packet count per connected master and slave (bytes)
system.membus.pkt_count::total                  42780                       # Packet count per connected master and slave (bytes)
system.membus.pkt_size_system.l2.mem_side::system.mem_ctrls.port      1773824                       # Cumulative packet size per connected master and slave (bytes)
system.membus.pkt_size_system.l2.mem_side::total      1773824                       # Cumulative packet size per connected master and slave (bytes)
system.membus.pkt_size::total                 1773824                       # Cumulative packet size per connected master and slave (bytes)
system.membus.snoops                                0                       # Total snoops (count)
system.membus.snoopTraffic                          0                       # Total snoop traffic (bytes)
system.membus.snoop_fanout::samples             14260                       # Request fanout histogram
system.membus.snoop_fanout::mean                    0                       # Request fanout histogram
system.membus.snoop_fanout::stdev                   0                       # Request fanout histogram
system.membus.snoop_fanout::underflows              0      0.00%      0.00% # Request fanout histogram
system.membus.snoop_fanout::0                   14260    100.00%    100.00% # Request fanout histogram
system.membus.snoop_fanout::1                       0      0.00%    100.00% # Request fanout histogram
system.membus.snoop_fanout::overflows               0      0.00%    100.00% # Request fanout histogram
system.membus.snoop_fanout::min_value               0                       # Request fanout histogram
system.membus.snoop_fanout::max_value               0                       # Request fanout histogram
system.membus.snoop_fanout::total               14260                       # Request fanout histogram
system.membus.reqLayer8.occupancy            85953000                       # Layer occupancy (ticks)
system.membus.reqLayer8.utilization               0.6                       # Layer utilization (%)
system.membus.respLayer1.occupancy           75942500                       # Layer occupancy (ticks)
system.membus.respLayer1.utilization              0.5                       # Layer utilization (%)
system.tol2bus.snoop_filter.tot_requests        28562                       # Total number of requests made to the snoop filter.
system.tol2bus.snoop_filter.hit_single_requests        14281                       # Number of requests hitting in the snoop filter with a single holder of the requested data.
system.tol2bus.snoop_filter.hit_multi_requests            0                       # Number of requests hitting in the snoop filter with multiple (>1) holders of the requested data.
system.tol2bus.snoop_filter.tot_snoops              0                       # Total number of snoops made to the snoop filter.
system.tol2bus.snoop_filter.hit_single_snoops            0                       # Number of snoops hitting in the snoop filter with a single holder of the requested data.
system.tol2bus.snoop_filter.hit_multi_snoops            0                       # Number of snoops hitting in the snoop filter with multiple (>1) holders of the requested data.
system.tol2bus.pwrStateResidencyTicks::UNDEFINED  15267344125                       # Cumulative time (in ticks) in various power states
system.tol2bus.trans_dist::ReadResp             14281                       # Transaction distribution
system.tol2bus.trans_dist::WritebackDirty        26915                       # Transaction distribution
system.tol2bus.trans_dist::CleanEvict            1626                       # Transaction distribution
system.tol2bus.trans_dist::ReadSharedReq        14281                       # Transaction distribution
system.tol2bus.pkt_count_system.cpu0.dcache.mem_side::system.l2.cpu_side        42843                       # Packet count per connected master and slave (bytes)
system.tol2bus.pkt_count::total                 42843                       # Packet count per connected master and slave (bytes)
system.tol2bus.pkt_size_system.cpu0.dcache.mem_side::system.l2.cpu_side      1775360                       # Cumulative packet size per connected master and slave (bytes)
system.tol2bus.pkt_size::total                1775360                       # Cumulative packet size per connected master and slave (bytes)
system.tol2bus.snoops                           14260                       # Total snoops (count)
system.tol2bus.snoopTraffic                    861184                       # Total snoop traffic (bytes)
system.tol2bus.snoop_fanout::samples            28541                       # Request fanout histogram
system.tol2bus.snoop_fanout::mean                   0                       # Request fanout histogram
system.tol2bus.snoop_fanout::stdev                  0                       # Request fanout histogram
system.tol2bus.snoop_fanout::underflows             0      0.00%      0.00% # Request fanout histogram
system.tol2bus.snoop_fanout::0                  28541    100.00%    100.00% # Request fanout histogram
system.tol2bus.snoop_fanout::1                      0      0.00%    100.00% # Request fanout histogram
system.tol2bus.snoop_fanout::2                      0      0.00%    100.00% # Request fanout histogram
system.tol2bus.snoop_fanout::3                      0      0.00%    100.00% # Request fanout histogram
system.tol2bus.snoop_fanout::4                      0      0.00%    100.00% # Request fanout histogram
system.tol2bus.snoop_fanout::5                      0      0.00%    100.00% # Request fanout histogram
system.tol2bus.snoop_fanout::6                      0      0.00%    100.00% # Request fanout histogram
system.tol2bus.snoop_fanout::7                      0      0.00%    100.00% # Request fanout histogram
system.tol2bus.snoop_fanout::8                      0      0.00%    100.00% # Request fanout histogram
system.tol2bus.snoop_fanout::9                      0      0.00%    100.00% # Request fanout histogram
system.tol2bus.snoop_fanout::10                     0      0.00%    100.00% # Request fanout histogram
system.tol2bus.snoop_fanout::11                     0      0.00%    100.00% # Request fanout histogram
system.tol2bus.snoop_fanout::12                     0      0.00%    100.00% # Request fanout histogram
system.tol2bus.snoop_fanout::13                     0      0.00%    100.00% # Request fanout histogram
system.tol2bus.snoop_fanout::14                     0      0.00%    100.00% # Request fanout histogram
system.tol2bus.snoop_fanout::15                     0      0.00%    100.00% # Request fanout histogram
system.tol2bus.snoop_fanout::16                     0      0.00%    100.00% # Request fanout histogram
system.tol2bus.snoop_fanout::overflows              0      0.00%    100.00% # Request fanout histogram
system.tol2bus.snoop_fanout::min_value              0                       # Request fanout histogram
system.tol2bus.snoop_fanout::max_value              0                       # Request fanout histogram
system.tol2bus.snoop_fanout::total              28541                       # Request fanout histogram
system.tol2bus.reqLayer0.occupancy           27740000                       # Layer occupancy (ticks)
system.tol2bus.reqLayer0.utilization              0.2                       # Layer utilization (%)
system.tol2bus.respLayer1.occupancy          21421500                       # Layer occupancy (ticks)
system.tol2bus.respLayer1.utilization             0.1                       # Layer utilization (%)

---------- End Simulation Statistics   ----------
