
---------- Begin Simulation Statistics ----------
sim_seconds                                  0.015267                       # Number of seconds simulated
sim_ticks                                 15267344125                       # Number of ticks simulated
final_tick                               8091692386250                       # Number of ticks from beginning of simulation (restored from checkpoints and never reset)
sim_freq                                 1000000000000                       # Frequency of simulated ticks
host_inst_rate                               25140657                       # Simulator instruction rate (inst/s)
host_op_rate                                 47037536                       # Simulator op (including micro ops) rate (op/s)
host_tick_rate                               60922958                       # Simulator tick rate (ticks/s)
host_mem_usage                                2332680                       # Number of bytes of host memory used
host_seconds                                   250.60                       # Real time elapsed on the host
sim_insts                                  6300268442                       # Number of instructions simulated
sim_ops                                   11787645044                       # Number of ops (including micro ops) simulated
system.voltage_domain.voltage                       1                       # Voltage in Volts
system.clk_domain.clock                          1000                       # Clock period in ticks
system.mem_ctrls.pwrStateResidencyTicks::UNDEFINED  15267344125                       # Cumulative time (in ticks) in various power states
system.mem_ctrls.bytes_read::cpu0.inst            384                       # Number of bytes read from this memory
system.mem_ctrls.bytes_read::cpu0.data            896                       # Number of bytes read from this memory
system.mem_ctrls.bytes_read::total               1280                       # Number of bytes read from this memory
system.mem_ctrls.bytes_inst_read::cpu0.inst          384                       # Number of instructions bytes read from this memory
system.mem_ctrls.bytes_inst_read::total           384                       # Number of instructions bytes read from this memory
system.mem_ctrls.num_reads::cpu0.inst               6                       # Number of read requests responded to by this memory
system.mem_ctrls.num_reads::cpu0.data              14                       # Number of read requests responded to by this memory
system.mem_ctrls.num_reads::total                  20                       # Number of read requests responded to by this memory
system.mem_ctrls.bw_read::cpu0.inst             25152                       # Total read bandwidth from this memory (bytes/s)
system.mem_ctrls.bw_read::cpu0.data             58687                       # Total read bandwidth from this memory (bytes/s)
system.mem_ctrls.bw_read::total                 83839                       # Total read bandwidth from this memory (bytes/s)
system.mem_ctrls.bw_inst_read::cpu0.inst        25152                       # Instruction read bandwidth from this memory (bytes/s)
system.mem_ctrls.bw_inst_read::total            25152                       # Instruction read bandwidth from this memory (bytes/s)
system.mem_ctrls.bw_total::cpu0.inst            25152                       # Total bandwidth to/from this memory (bytes/s)
system.mem_ctrls.bw_total::cpu0.data            58687                       # Total bandwidth to/from this memory (bytes/s)
system.mem_ctrls.bw_total::total                83839                       # Total bandwidth to/from this memory (bytes/s)
system.mem_ctrls.readReqs                          20                       # Number of read requests accepted
system.mem_ctrls.writeReqs                          0                       # Number of write requests accepted
system.mem_ctrls.readBursts                        20                       # Number of DRAM read bursts, including those serviced by the write queue
system.mem_ctrls.writeBursts                        0                       # Number of DRAM write bursts, including those merged in the write queue
system.mem_ctrls.bytesReadDRAM                   1280                       # Total number of bytes read from DRAM
system.mem_ctrls.bytesReadWrQ                       0                       # Total number of bytes read from write queue
system.mem_ctrls.bytesWritten                       0                       # Total number of bytes written to DRAM
system.mem_ctrls.bytesReadSys                    1280                       # Total read bytes from the system interface side
system.mem_ctrls.bytesWrittenSys                    0                       # Total written bytes from the system interface side
system.mem_ctrls.servicedByWrQ                      0                       # Number of DRAM read bursts serviced by the write queue
system.mem_ctrls.mergedWrBursts                     0                       # Number of DRAM write bursts merged with an existing one
system.mem_ctrls.neitherReadNorWriteReqs            0                       # Number of requests that are neither read nor write
system.mem_ctrls.perBankRdBursts::0                 1                       # Per bank write bursts
system.mem_ctrls.perBankRdBursts::1                 0                       # Per bank write bursts
system.mem_ctrls.perBankRdBursts::2                 2                       # Per bank write bursts
system.mem_ctrls.perBankRdBursts::3                 0                       # Per bank write bursts
system.mem_ctrls.perBankRdBursts::4                 2                       # Per bank write bursts
system.mem_ctrls.perBankRdBursts::5                 1                       # Per bank write bursts
system.mem_ctrls.perBankRdBursts::6                 1                       # Per bank write bursts
system.mem_ctrls.perBankRdBursts::7                 0                       # Per bank write bursts
system.mem_ctrls.perBankRdBursts::8                 0                       # Per bank write bursts
system.mem_ctrls.perBankRdBursts::9                 0                       # Per bank write bursts
system.mem_ctrls.perBankRdBursts::10                0                       # Per bank write bursts
system.mem_ctrls.perBankRdBursts::11                0                       # Per bank write bursts
system.mem_ctrls.perBankRdBursts::12                3                       # Per bank write bursts
system.mem_ctrls.perBankRdBursts::13                0                       # Per bank write bursts
system.mem_ctrls.perBankRdBursts::14                2                       # Per bank write bursts
system.mem_ctrls.perBankRdBursts::15                8                       # Per bank write bursts
system.mem_ctrls.perBankWrBursts::0                 0                       # Per bank write bursts
system.mem_ctrls.perBankWrBursts::1                 0                       # Per bank write bursts
system.mem_ctrls.perBankWrBursts::2                 0                       # Per bank write bursts
system.mem_ctrls.perBankWrBursts::3                 0                       # Per bank write bursts
system.mem_ctrls.perBankWrBursts::4                 0                       # Per bank write bursts
system.mem_ctrls.perBankWrBursts::5                 0                       # Per bank write bursts
system.mem_ctrls.perBankWrBursts::6                 0                       # Per bank write bursts
system.mem_ctrls.perBankWrBursts::7                 0                       # Per bank write bursts
system.mem_ctrls.perBankWrBursts::8                 0                       # Per bank write bursts
system.mem_ctrls.perBankWrBursts::9                 0                       # Per bank write bursts
system.mem_ctrls.perBankWrBursts::10                0                       # Per bank write bursts
system.mem_ctrls.perBankWrBursts::11                0                       # Per bank write bursts
system.mem_ctrls.perBankWrBursts::12                0                       # Per bank write bursts
system.mem_ctrls.perBankWrBursts::13                0                       # Per bank write bursts
system.mem_ctrls.perBankWrBursts::14                0                       # Per bank write bursts
system.mem_ctrls.perBankWrBursts::15                0                       # Per bank write bursts
system.mem_ctrls.numRdRetry                         0                       # Number of times read queue was full causing retry
system.mem_ctrls.numWrRetry                         0                       # Number of times write queue was full causing retry
system.mem_ctrls.totGap                   15131919000                       # Total gap between requests
system.mem_ctrls.readPktSize::0                     0                       # Read request sizes (log2)
system.mem_ctrls.readPktSize::1                     0                       # Read request sizes (log2)
system.mem_ctrls.readPktSize::2                     0                       # Read request sizes (log2)
system.mem_ctrls.readPktSize::3                     0                       # Read request sizes (log2)
system.mem_ctrls.readPktSize::4                     0                       # Read request sizes (log2)
system.mem_ctrls.readPktSize::5                     0                       # Read request sizes (log2)
system.mem_ctrls.readPktSize::6                    20                       # Read request sizes (log2)
system.mem_ctrls.writePktSize::0                    0                       # Write request sizes (log2)
system.mem_ctrls.writePktSize::1                    0                       # Write request sizes (log2)
system.mem_ctrls.writePktSize::2                    0                       # Write request sizes (log2)
system.mem_ctrls.writePktSize::3                    0                       # Write request sizes (log2)
system.mem_ctrls.writePktSize::4                    0                       # Write request sizes (log2)
system.mem_ctrls.writePktSize::5                    0                       # Write request sizes (log2)
system.mem_ctrls.writePktSize::6                    0                       # Write request sizes (log2)
system.mem_ctrls.rdQLenPdf::0                      18                       # What read queue length does an incoming req see
system.mem_ctrls.rdQLenPdf::1                       2                       # What read queue length does an incoming req see
system.mem_ctrls.rdQLenPdf::2                       0                       # What read queue length does an incoming req see
system.mem_ctrls.rdQLenPdf::3                       0                       # What read queue length does an incoming req see
system.mem_ctrls.rdQLenPdf::4                       0                       # What read queue length does an incoming req see
system.mem_ctrls.rdQLenPdf::5                       0                       # What read queue length does an incoming req see
system.mem_ctrls.rdQLenPdf::6                       0                       # What read queue length does an incoming req see
system.mem_ctrls.rdQLenPdf::7                       0                       # What read queue length does an incoming req see
system.mem_ctrls.rdQLenPdf::8                       0                       # What read queue length does an incoming req see
system.mem_ctrls.rdQLenPdf::9                       0                       # What read queue length does an incoming req see
system.mem_ctrls.rdQLenPdf::10                      0                       # What read queue length does an incoming req see
system.mem_ctrls.rdQLenPdf::11                      0                       # What read queue length does an incoming req see
system.mem_ctrls.rdQLenPdf::12                      0                       # What read queue length does an incoming req see
system.mem_ctrls.rdQLenPdf::13                      0                       # What read queue length does an incoming req see
system.mem_ctrls.rdQLenPdf::14                      0                       # What read queue length does an incoming req see
system.mem_ctrls.rdQLenPdf::15                      0                       # What read queue length does an incoming req see
system.mem_ctrls.rdQLenPdf::16                      0                       # What read queue length does an incoming req see
system.mem_ctrls.rdQLenPdf::17                      0                       # What read queue length does an incoming req see
system.mem_ctrls.rdQLenPdf::18                      0                       # What read queue length does an incoming req see
system.mem_ctrls.rdQLenPdf::19                      0                       # What read queue length does an incoming req see
system.mem_ctrls.rdQLenPdf::20                      0                       # What read queue length does an incoming req see
system.mem_ctrls.rdQLenPdf::21                      0                       # What read queue length does an incoming req see
system.mem_ctrls.rdQLenPdf::22                      0                       # What read queue length does an incoming req see
system.mem_ctrls.rdQLenPdf::23                      0                       # What read queue length does an incoming req see
system.mem_ctrls.rdQLenPdf::24                      0                       # What read queue length does an incoming req see
system.mem_ctrls.rdQLenPdf::25                      0                       # What read queue length does an incoming req see
system.mem_ctrls.rdQLenPdf::26                      0                       # What read queue length does an incoming req see
system.mem_ctrls.rdQLenPdf::27                      0                       # What read queue length does an incoming req see
system.mem_ctrls.rdQLenPdf::28                      0                       # What read queue length does an incoming req see
system.mem_ctrls.rdQLenPdf::29                      0                       # What read queue length does an incoming req see
system.mem_ctrls.rdQLenPdf::30                      0                       # What read queue length does an incoming req see
system.mem_ctrls.rdQLenPdf::31                      0                       # What read queue length does an incoming req see
system.mem_ctrls.wrQLenPdf::0                       0                       # What write queue length does an incoming req see
system.mem_ctrls.wrQLenPdf::1                       0                       # What write queue length does an incoming req see
system.mem_ctrls.wrQLenPdf::2                       0                       # What write queue length does an incoming req see
system.mem_ctrls.wrQLenPdf::3                       0                       # What write queue length does an incoming req see
system.mem_ctrls.wrQLenPdf::4                       0                       # What write queue length does an incoming req see
system.mem_ctrls.wrQLenPdf::5                       0                       # What write queue length does an incoming req see
system.mem_ctrls.wrQLenPdf::6                       0                       # What write queue length does an incoming req see
system.mem_ctrls.wrQLenPdf::7                       0                       # What write queue length does an incoming req see
system.mem_ctrls.wrQLenPdf::8                       0                       # What write queue length does an incoming req see
system.mem_ctrls.wrQLenPdf::9                       0                       # What write queue length does an incoming req see
system.mem_ctrls.wrQLenPdf::10                      0                       # What write queue length does an incoming req see
system.mem_ctrls.wrQLenPdf::11                      0                       # What write queue length does an incoming req see
system.mem_ctrls.wrQLenPdf::12                      0                       # What write queue length does an incoming req see
system.mem_ctrls.wrQLenPdf::13                      0                       # What write queue length does an incoming req see
system.mem_ctrls.wrQLenPdf::14                      0                       # What write queue length does an incoming req see
system.mem_ctrls.wrQLenPdf::15                      0                       # What write queue length does an incoming req see
system.mem_ctrls.wrQLenPdf::16                      0                       # What write queue length does an incoming req see
system.mem_ctrls.wrQLenPdf::17                      0                       # What write queue length does an incoming req see
system.mem_ctrls.wrQLenPdf::18                      0                       # What write queue length does an incoming req see
system.mem_ctrls.wrQLenPdf::19                      0                       # What write queue length does an incoming req see
system.mem_ctrls.wrQLenPdf::20                      0                       # What write queue length does an incoming req see
system.mem_ctrls.wrQLenPdf::21                      0                       # What write queue length does an incoming req see
system.mem_ctrls.wrQLenPdf::22                      0                       # What write queue length does an incoming req see
system.mem_ctrls.wrQLenPdf::23                      0                       # What write queue length does an incoming req see
system.mem_ctrls.wrQLenPdf::24                      0                       # What write queue length does an incoming req see
system.mem_ctrls.wrQLenPdf::25                      0                       # What write queue length does an incoming req see
system.mem_ctrls.wrQLenPdf::26                      0                       # What write queue length does an incoming req see
system.mem_ctrls.wrQLenPdf::27                      0                       # What write queue length does an incoming req see
system.mem_ctrls.wrQLenPdf::28                      0                       # What write queue length does an incoming req see
system.mem_ctrls.wrQLenPdf::29                      0                       # What write queue length does an incoming req see
system.mem_ctrls.wrQLenPdf::30                      0                       # What write queue length does an incoming req see
system.mem_ctrls.wrQLenPdf::31                      0                       # What write queue length does an incoming req see
system.mem_ctrls.wrQLenPdf::32                      0                       # What write queue length does an incoming req see
system.mem_ctrls.wrQLenPdf::33                      0                       # What write queue length does an incoming req see
system.mem_ctrls.wrQLenPdf::34                      0                       # What write queue length does an incoming req see
system.mem_ctrls.wrQLenPdf::35                      0                       # What write queue length does an incoming req see
system.mem_ctrls.wrQLenPdf::36                      0                       # What write queue length does an incoming req see
system.mem_ctrls.wrQLenPdf::37                      0                       # What write queue length does an incoming req see
system.mem_ctrls.wrQLenPdf::38                      0                       # What write queue length does an incoming req see
system.mem_ctrls.wrQLenPdf::39                      0                       # What write queue length does an incoming req see
system.mem_ctrls.wrQLenPdf::40                      0                       # What write queue length does an incoming req see
system.mem_ctrls.wrQLenPdf::41                      0                       # What write queue length does an incoming req see
system.mem_ctrls.wrQLenPdf::42                      0                       # What write queue length does an incoming req see
system.mem_ctrls.wrQLenPdf::43                      0                       # What write queue length does an incoming req see
system.mem_ctrls.wrQLenPdf::44                      0                       # What write queue length does an incoming req see
system.mem_ctrls.wrQLenPdf::45                      0                       # What write queue length does an incoming req see
system.mem_ctrls.wrQLenPdf::46                      0                       # What write queue length does an incoming req see
system.mem_ctrls.wrQLenPdf::47                      0                       # What write queue length does an incoming req see
system.mem_ctrls.wrQLenPdf::48                      0                       # What write queue length does an incoming req see
system.mem_ctrls.wrQLenPdf::49                      0                       # What write queue length does an incoming req see
system.mem_ctrls.wrQLenPdf::50                      0                       # What write queue length does an incoming req see
system.mem_ctrls.wrQLenPdf::51                      0                       # What write queue length does an incoming req see
system.mem_ctrls.wrQLenPdf::52                      0                       # What write queue length does an incoming req see
system.mem_ctrls.wrQLenPdf::53                      0                       # What write queue length does an incoming req see
system.mem_ctrls.wrQLenPdf::54                      0                       # What write queue length does an incoming req see
system.mem_ctrls.wrQLenPdf::55                      0                       # What write queue length does an incoming req see
system.mem_ctrls.wrQLenPdf::56                      0                       # What write queue length does an incoming req see
system.mem_ctrls.wrQLenPdf::57                      0                       # What write queue length does an incoming req see
system.mem_ctrls.wrQLenPdf::58                      0                       # What write queue length does an incoming req see
system.mem_ctrls.wrQLenPdf::59                      0                       # What write queue length does an incoming req see
system.mem_ctrls.wrQLenPdf::60                      0                       # What write queue length does an incoming req see
system.mem_ctrls.wrQLenPdf::61                      0                       # What write queue length does an incoming req see
system.mem_ctrls.wrQLenPdf::62                      0                       # What write queue length does an incoming req see
system.mem_ctrls.wrQLenPdf::63                      0                       # What write queue length does an incoming req see
system.mem_ctrls.bytesPerActivate::samples           18                       # Bytes accessed per row activation
system.mem_ctrls.bytesPerActivate::mean     71.111111                       # Bytes accessed per row activation
system.mem_ctrls.bytesPerActivate::gmean    69.123823                       # Bytes accessed per row activation
system.mem_ctrls.bytesPerActivate::stdev    20.696373                       # Bytes accessed per row activation
system.mem_ctrls.bytesPerActivate::64-79           16     88.89%     88.89% # Bytes accessed per row activation
system.mem_ctrls.bytesPerActivate::128-143            2     11.11%    100.00% # Bytes accessed per row activation
system.mem_ctrls.bytesPerActivate::total           18                       # Bytes accessed per row activation
system.mem_ctrls.totQLat                      8199750                       # Total ticks spent queuing
system.mem_ctrls.totMemAccLat                 8574750                       # Total ticks spent from burst creation until serviced by the DRAM
system.mem_ctrls.totBusLat                     100000                       # Total ticks spent in databus transfers
system.mem_ctrls.avgQLat                    409987.50                       # Average queueing delay per DRAM burst
system.mem_ctrls.avgBusLat                    5000.00                       # Average bus latency per DRAM burst
system.mem_ctrls.avgMemAccLat               428737.50                       # Average memory access latency per DRAM burst
system.mem_ctrls.avgRdBW                         0.08                       # Average DRAM read bandwidth in MiByte/s
system.mem_ctrls.avgWrBW                         0.00                       # Average achieved write bandwidth in MiByte/s
system.mem_ctrls.avgRdBWSys                      0.08                       # Average system read bandwidth in MiByte/s
system.mem_ctrls.avgWrBWSys                      0.00                       # Average system write bandwidth in MiByte/s
system.mem_ctrls.peakBW                      12800.00                       # Theoretical peak bandwidth in MiByte/s
system.mem_ctrls.busUtil                         0.00                       # Data bus utilization in percentage
system.mem_ctrls.busUtilRead                     0.00                       # Data bus utilization in percentage for reads
system.mem_ctrls.busUtilWrite                    0.00                       # Data bus utilization in percentage for writes
system.mem_ctrls.avgRdQLen                       1.13                       # Average read queue length when enqueuing
system.mem_ctrls.avgWrQLen                      26.00                       # Average write queue length when enqueuing
system.mem_ctrls.readRowHits                        2                       # Number of row buffer hits during reads
system.mem_ctrls.writeRowHits                       0                       # Number of row buffer hits during writes
system.mem_ctrls.readRowHitRate                 10.00                       # Row buffer hit rate for reads
system.mem_ctrls.writeRowHitRate                  nan                       # Row buffer hit rate for writes
system.mem_ctrls.avgGap                  756595950.00                       # Average gap between requests
system.mem_ctrls.pageHitRate                    10.00                       # Row buffer hit rate, read and write combined
system.mem_ctrls_0.actEnergy                    42840                       # Energy for activate commands per rank (pJ)
system.mem_ctrls_0.preEnergy                    22770                       # Energy for precharge commands per rank (pJ)
system.mem_ctrls_0.readEnergy                   49980                       # Energy for read commands per rank (pJ)
system.mem_ctrls_0.writeEnergy                      0                       # Energy for write commands per rank (pJ)
system.mem_ctrls_0.refreshEnergy         7990320.000000                       # Energy for refresh commands per rank (pJ)
system.mem_ctrls_0.actBackEnergy              1565220                       # Energy for active background per rank (pJ)
system.mem_ctrls_0.preBackEnergy               520800                       # Energy for precharge background per rank (pJ)
system.mem_ctrls_0.actPowerDownEnergy        14691180                       # Energy for active power-down per rank (pJ)
system.mem_ctrls_0.prePowerDownEnergy        13522080                       # Energy for precharge power-down per rank (pJ)
system.mem_ctrls_0.selfRefreshEnergy       3649038660                       # Energy for self refresh per rank (pJ)
system.mem_ctrls_0.totalEnergy             3687443850                       # Total energy per rank (pJ)
system.mem_ctrls_0.averagePower            241.524906                       # Core power per rank (mW)
system.mem_ctrls_0.totalIdleTime           8379042625                       # Total Idle time Per DRAM Rank
system.mem_ctrls_0.memoryStateTime::IDLE      1086000                       # Time in different power states
system.mem_ctrls_0.memoryStateTime::REF       3404000                       # Time in different power states
system.mem_ctrls_0.memoryStateTime::SREF  15195123875                       # Time in different power states
system.mem_ctrls_0.memoryStateTime::PRE_PDN     35213000                       # Time in different power states
system.mem_ctrls_0.memoryStateTime::ACT        299750                       # Time in different power states
system.mem_ctrls_0.memoryStateTime::ACT_PDN     32217500                       # Time in different power states
system.mem_ctrls_1.actEnergy                    85680                       # Energy for activate commands per rank (pJ)
system.mem_ctrls_1.preEnergy                    45540                       # Energy for precharge commands per rank (pJ)
system.mem_ctrls_1.readEnergy                   92820                       # Energy for read commands per rank (pJ)
system.mem_ctrls_1.writeEnergy                      0                       # Energy for write commands per rank (pJ)
system.mem_ctrls_1.refreshEnergy         19668480.000000                       # Energy for refresh commands per rank (pJ)
system.mem_ctrls_1.actBackEnergy              3805320                       # Energy for active background per rank (pJ)
system.mem_ctrls_1.preBackEnergy              1296000                       # Energy for precharge background per rank (pJ)
system.mem_ctrls_1.actPowerDownEnergy        37506570                       # Energy for active power-down per rank (pJ)
system.mem_ctrls_1.prePowerDownEnergy        31750560                       # Energy for precharge power-down per rank (pJ)
system.mem_ctrls_1.selfRefreshEnergy       3627287700                       # Energy for self refresh per rank (pJ)
system.mem_ctrls_1.totalEnergy             3721538670                       # Total energy per rank (pJ)
system.mem_ctrls_1.averagePower            243.758092                       # Core power per rank (mW)
system.mem_ctrls_1.totalIdleTime          14843026375                       # Total Idle time Per DRAM Rank
system.mem_ctrls_1.memoryStateTime::IDLE      2712000                       # Time in different power states
system.mem_ctrls_1.memoryStateTime::REF       8380000                       # Time in different power states
system.mem_ctrls_1.memoryStateTime::SREF  15090686625                       # Time in different power states
system.mem_ctrls_1.memoryStateTime::PRE_PDN     82682000                       # Time in different power states
system.mem_ctrls_1.memoryStateTime::ACT        632000                       # Time in different power states
system.mem_ctrls_1.memoryStateTime::ACT_PDN     82251500                       # Time in different power states
system.pwrStateResidencyTicks::UNDEFINED  15267344125                       # Cumulative time (in ticks) in various power states
system.cpu0.branchPred.lookups                6047842                       # Number of BP lookups
system.cpu0.branchPred.condPredicted          6047842                       # Number of conditional branches predicted
system.cpu0.branchPred.condIncorrect            31361                       # Number of conditional branches incorrect
system.cpu0.branchPred.BTBLookups             6006600                       # Number of BTB lookups
system.cpu0.branchPred.BTBHits                      0                       # Number of BTB hits
system.cpu0.branchPred.BTBCorrect                   0                       # Number of correct BTB predictions (this stat may not work properly.
system.cpu0.branchPred.BTBHitPct             0.000000                       # BTB Hit Percentage
system.cpu0.branchPred.usedRAS                  17492                       # Number of times the RAS was used to get a target.
system.cpu0.branchPred.RASInCorrect              3645                       # Number of incorrect RAS predictions.
system.cpu0.branchPred.indirectLookups        6006600                       # Number of indirect predictor lookups.
system.cpu0.branchPred.indirectHits           5840627                       # Number of indirect target hits.
system.cpu0.branchPred.indirectMisses          165973                       # Number of indirect misses.
system.cpu0.branchPredindirectMispredicted        22391                       # Number of mispredicted indirect branches.
system.cpu_voltage_domain.voltage                   1                       # Voltage in Volts
system.cpu_clk_domain.clock                       500                       # Clock period in ticks
system.cpu0.dtb.walker.pwrStateResidencyTicks::UNDEFINED  15267344125                       # Cumulative time (in ticks) in various power states
system.cpu0.dtb.rdAccesses                    1734307                       # TLB accesses on read requests
system.cpu0.dtb.wrAccesses                    5984636                       # TLB accesses on write requests
system.cpu0.dtb.rdMisses                         3792                       # TLB misses on read requests
system.cpu0.dtb.wrMisses                        12496                       # TLB misses on write requests
system.cpu0.apic_clk_domain.clock                8000                       # Clock period in ticks
system.cpu0.interrupts.pwrStateResidencyTicks::UNDEFINED  15267344125                       # Cumulative time (in ticks) in various power states
system.cpu0.itb.walker.pwrStateResidencyTicks::UNDEFINED  15267344125                       # Cumulative time (in ticks) in various power states
system.cpu0.itb.rdAccesses                          0                       # TLB accesses on read requests
system.cpu0.itb.wrAccesses                     238512                       # TLB accesses on write requests
system.cpu0.itb.rdMisses                            0                       # TLB misses on read requests
system.cpu0.itb.wrMisses                          499                       # TLB misses on write requests
system.cpu0.workload.numSyscalls                  267                       # Number of system calls
system.cpu0.pwrStateResidencyTicks::ON    15267344125                       # Cumulative time (in ticks) in various power states
system.cpu0.numCycles                        30534688                       # number of cpu cycles simulated
system.cpu0.numWorkItemsStarted                     0                       # number of work items this cpu started
system.cpu0.numWorkItemsCompleted                   0                       # number of work items this cpu completed
system.cpu0.fetch.icacheStallCycles            295055                       # Number of cycles fetch is stalled on an Icache miss
system.cpu0.fetch.Insts                      26624703                       # Number of instructions fetch has processed
system.cpu0.fetch.Branches                    6047842                       # Number of branches that fetch encountered
system.cpu0.fetch.predictedBranches           5858119                       # Number of branches that fetch has predicted taken
system.cpu0.fetch.Cycles                     30201436                       # Number of cycles fetch has run and was not squashing or blocked
system.cpu0.fetch.SquashCycles                  64204                       # Number of cycles fetch has spent squashing
system.cpu0.fetch.TlbCycles                         2                       # Number of cycles fetch has spent waiting for tlb
system.cpu0.fetch.MiscStallCycles                  77                       # Number of cycles fetch has spent waiting on interrupts, or bad addresses, or out of MSHRs
system.cpu0.fetch.PendingTrapStallCycles          479                       # Number of stall cycles due to pending traps
system.cpu0.fetch.CacheLines                   238394                       # Number of cache lines fetched
system.cpu0.fetch.IcacheSquashes                 9220                       # Number of outstanding Icache misses that were squashed
system.cpu0.fetch.ItlbSquashes                      2                       # Number of outstanding ITLB misses that were squashed
system.cpu0.fetch.rateDist::samples          30529151                       # Number of instructions fetched each cycle (Total)
system.cpu0.fetch.rateDist::mean             1.759516                       # Number of instructions fetched each cycle (Total)
system.cpu0.fetch.rateDist::stdev            3.188382                       # Number of instructions fetched each cycle (Total)
system.cpu0.fetch.rateDist::underflows              0      0.00%      0.00% # Number of instructions fetched each cycle (Total)
system.cpu0.fetch.rateDist::0                22675270     74.27%     74.27% # Number of instructions fetched each cycle (Total)
system.cpu0.fetch.rateDist::1                  197047      0.65%     74.92% # Number of instructions fetched each cycle (Total)
system.cpu0.fetch.rateDist::2                  210351      0.69%     75.61% # Number of instructions fetched each cycle (Total)
system.cpu0.fetch.rateDist::3                 1120988      3.67%     79.28% # Number of instructions fetched each cycle (Total)
system.cpu0.fetch.rateDist::4                  132988      0.44%     79.72% # Number of instructions fetched each cycle (Total)
system.cpu0.fetch.rateDist::5                   40803      0.13%     79.85% # Number of instructions fetched each cycle (Total)
system.cpu0.fetch.rateDist::6                   45090      0.15%     80.00% # Number of instructions fetched each cycle (Total)
system.cpu0.fetch.rateDist::7                  123597      0.40%     80.40% # Number of instructions fetched each cycle (Total)
system.cpu0.fetch.rateDist::8                 5983017     19.60%    100.00% # Number of instructions fetched each cycle (Total)
system.cpu0.fetch.rateDist::overflows               0      0.00%    100.00% # Number of instructions fetched each cycle (Total)
system.cpu0.fetch.rateDist::min_value               0                       # Number of instructions fetched each cycle (Total)
system.cpu0.fetch.rateDist::max_value               8                       # Number of instructions fetched each cycle (Total)
system.cpu0.fetch.rateDist::total            30529151                       # Number of instructions fetched each cycle (Total)
system.cpu0.fetch.branchRate                 0.198065                       # Number of branch fetches per cycle
system.cpu0.fetch.rate                       0.871949                       # Number of inst fetches per cycle
system.cpu0.decode.IdleCycles                 1912887                       # Number of cycles decode is idle
system.cpu0.decode.BlockedCycles             21839649                       # Number of cycles decode is blocked
system.cpu0.decode.RunCycles                  2998063                       # Number of cycles decode is running
system.cpu0.decode.UnblockCycles              3746450                       # Number of cycles decode is unblocking
system.cpu0.decode.SquashCycles                 32102                       # Number of cycles decode is squashing
system.cpu0.decode.DecodedInsts              53468552                       # Number of instructions handled by decode
system.cpu0.rename.SquashCycles                 32102                       # Number of cycles rename is squashing
system.cpu0.rename.IdleCycles                 3165511                       # Number of cycles rename is idle
system.cpu0.rename.BlockCycles                 185116                       # Number of cycles rename is blocking
system.cpu0.rename.serializeStallCycles         11337                       # count of cycles rename stalled for serializing inst
system.cpu0.rename.RunCycles                  5487711                       # Number of cycles rename is running
system.cpu0.rename.UnblockCycles             21647374                       # Number of cycles rename is unblocking
system.cpu0.rename.RenamedInsts              53315623                       # Number of instructions processed by rename
system.cpu0.rename.ROBFullEvents                 3359                       # Number of times rename has blocked due to ROB full
system.cpu0.rename.IQFullEvents                 85771                       # Number of times rename has blocked due to IQ full
system.cpu0.rename.LQFullEvents                 22415                       # Number of times rename has blocked due to LQ full
system.cpu0.rename.SQFullEvents              20314440                       # Number of times rename has blocked due to SQ full
system.cpu0.rename.RenamedOperands           68033085                       # Number of destination operands rename has renamed
system.cpu0.rename.RenameLookups            112678998                       # Number of register rename lookups that rename has made
system.cpu0.rename.int_rename_lookups        61305924                       # Number of integer rename lookups
system.cpu0.rename.fp_rename_lookups          1537725                       # Number of floating rename lookups
system.cpu0.rename.CommittedMaps             66752053                       # Number of HB maps that are committed
system.cpu0.rename.UndoneMaps                 1281011                       # Number of HB maps that are undone due to squashing
system.cpu0.rename.serializingInsts               576                       # count of serializing insts renamed
system.cpu0.rename.tempSerializingInsts           619                       # count of temporary serializing insts renamed
system.cpu0.rename.skidInsts                 22470712                       # count of insts added to the skid buffer
system.cpu0.memDep0.insertedLoads             1786646                       # Number of loads inserted to the mem dependence unit.
system.cpu0.memDep0.insertedStores            6023240                       # Number of stores inserted to the mem dependence unit.
system.cpu0.memDep0.conflictingLoads           101768                       # Number of conflicting loads.
system.cpu0.memDep0.conflictingStores           94881                       # Number of conflicting stores.
system.cpu0.iq.iqInstsAdded                  53011393                       # Number of instructions added to the IQ (excludes non-spec)
system.cpu0.iq.iqNonSpecInstsAdded               3721                       # Number of non-speculative instructions added to the IQ
system.cpu0.iq.iqInstsIssued                 52711645                       # Number of instructions issued
system.cpu0.iq.iqSquashedInstsIssued             9563                       # Number of squashed instructions issued
system.cpu0.iq.iqSquashedInstsExamined         815847                       # Number of squashed instructions iterated over during squash; mainly for profiling
system.cpu0.iq.iqSquashedOperandsExamined      1208905                       # Number of squashed operands that are examined and possibly removed from graph
system.cpu0.iq.iqSquashedNonSpecRemoved          3154                       # Number of squashed non-spec instructions that were removed
system.cpu0.iq.issued_per_cycle::samples     30529151                       # Number of insts issued each cycle
system.cpu0.iq.issued_per_cycle::mean        1.726600                       # Number of insts issued each cycle
system.cpu0.iq.issued_per_cycle::stdev       2.225648                       # Number of insts issued each cycle
system.cpu0.iq.issued_per_cycle::underflows            0      0.00%      0.00% # Number of insts issued each cycle
system.cpu0.iq.issued_per_cycle::0           16256359     53.25%     53.25% # Number of insts issued each cycle
system.cpu0.iq.issued_per_cycle::1            2263984      7.42%     60.66% # Number of insts issued each cycle
system.cpu0.iq.issued_per_cycle::2            2491412      8.16%     68.83% # Number of insts issued each cycle
system.cpu0.iq.issued_per_cycle::3            1645437      5.39%     74.21% # Number of insts issued each cycle
system.cpu0.iq.issued_per_cycle::4            1531463      5.02%     79.23% # Number of insts issued each cycle
system.cpu0.iq.issued_per_cycle::5            4757165     15.58%     94.81% # Number of insts issued each cycle
system.cpu0.iq.issued_per_cycle::6             590569      1.93%     96.75% # Number of insts issued each cycle
system.cpu0.iq.issued_per_cycle::7             868661      2.85%     99.59% # Number of insts issued each cycle
system.cpu0.iq.issued_per_cycle::8             124101      0.41%    100.00% # Number of insts issued each cycle
system.cpu0.iq.issued_per_cycle::overflows            0      0.00%    100.00% # Number of insts issued each cycle
system.cpu0.iq.issued_per_cycle::min_value            0                       # Number of insts issued each cycle
system.cpu0.iq.issued_per_cycle::max_value            8                       # Number of insts issued each cycle
system.cpu0.iq.issued_per_cycle::total       30529151                       # Number of insts issued each cycle
system.cpu0.iq.fu_full::No_OpClass                  0      0.00%      0.00% # attempts to use FU when none available
system.cpu0.iq.fu_full::IntAlu                 363999     94.43%     94.43% # attempts to use FU when none available
system.cpu0.iq.fu_full::IntMult                     0      0.00%     94.43% # attempts to use FU when none available
system.cpu0.iq.fu_full::IntDiv                      0      0.00%     94.43% # attempts to use FU when none available
system.cpu0.iq.fu_full::FloatAdd                 2011      0.52%     94.95% # attempts to use FU when none available
system.cpu0.iq.fu_full::FloatCmp                    0      0.00%     94.95% # attempts to use FU when none available
system.cpu0.iq.fu_full::FloatCvt                    0      0.00%     94.95% # attempts to use FU when none available
system.cpu0.iq.fu_full::FloatMult                   0      0.00%     94.95% # attempts to use FU when none available
system.cpu0.iq.fu_full::FloatMultAcc                0      0.00%     94.95% # attempts to use FU when none available
system.cpu0.iq.fu_full::FloatDiv                    0      0.00%     94.95% # attempts to use FU when none available
system.cpu0.iq.fu_full::FloatMisc                   0      0.00%     94.95% # attempts to use FU when none available
system.cpu0.iq.fu_full::FloatSqrt                   0      0.00%     94.95% # attempts to use FU when none available
system.cpu0.iq.fu_full::SimdAdd                     0      0.00%     94.95% # attempts to use FU when none available
system.cpu0.iq.fu_full::SimdAddAcc                  0      0.00%     94.95% # attempts to use FU when none available
system.cpu0.iq.fu_full::SimdAlu                     0      0.00%     94.95% # attempts to use FU when none available
system.cpu0.iq.fu_full::SimdCmp                     0      0.00%     94.95% # attempts to use FU when none available
system.cpu0.iq.fu_full::SimdCvt                     0      0.00%     94.95% # attempts to use FU when none available
system.cpu0.iq.fu_full::SimdMisc                    0      0.00%     94.95% # attempts to use FU when none available
system.cpu0.iq.fu_full::SimdMult                    0      0.00%     94.95% # attempts to use FU when none available
system.cpu0.iq.fu_full::SimdMultAcc                 0      0.00%     94.95% # attempts to use FU when none available
system.cpu0.iq.fu_full::SimdShift                   0      0.00%     94.95% # attempts to use FU when none available
system.cpu0.iq.fu_full::SimdShiftAcc                0      0.00%     94.95% # attempts to use FU when none available
system.cpu0.iq.fu_full::SimdSqrt                    0      0.00%     94.95% # attempts to use FU when none available
system.cpu0.iq.fu_full::SimdFloatAdd                0      0.00%     94.95% # attempts to use FU when none available
system.cpu0.iq.fu_full::SimdFloatAlu                0      0.00%     94.95% # attempts to use FU when none available
system.cpu0.iq.fu_full::SimdFloatCmp                0      0.00%     94.95% # attempts to use FU when none available
system.cpu0.iq.fu_full::SimdFloatCvt                0      0.00%     94.95% # attempts to use FU when none available
system.cpu0.iq.fu_full::SimdFloatDiv                0      0.00%     94.95% # attempts to use FU when none available
system.cpu0.iq.fu_full::SimdFloatMisc               0      0.00%     94.95% # attempts to use FU when none available
system.cpu0.iq.fu_full::SimdFloatMult               0      0.00%     94.95% # attempts to use FU when none available
system.cpu0.iq.fu_full::SimdFloatMultAcc            0      0.00%     94.95% # attempts to use FU when none available
system.cpu0.iq.fu_full::SimdFloatSqrt               0      0.00%     94.95% # attempts to use FU when none available
system.cpu0.iq.fu_full::MemRead                  3749      0.97%     95.92% # attempts to use FU when none available
system.cpu0.iq.fu_full::MemWrite                 1010      0.26%     96.18% # attempts to use FU when none available
system.cpu0.iq.fu_full::FloatMemRead            13650      3.54%     99.73% # attempts to use FU when none available
system.cpu0.iq.fu_full::FloatMemWrite            1059      0.27%    100.00% # attempts to use FU when none available
system.cpu0.iq.fu_full::IprAccess                   0      0.00%    100.00% # attempts to use FU when none available
system.cpu0.iq.fu_full::InstPrefetch                0      0.00%    100.00% # attempts to use FU when none available
system.cpu0.iq.FU_type_0::No_OpClass            20649      0.04%      0.04% # Type of FU issued
system.cpu0.iq.FU_type_0::IntAlu             44532042     84.48%     84.52% # Type of FU issued
system.cpu0.iq.FU_type_0::IntMult                 447      0.00%     84.52% # Type of FU issued
system.cpu0.iq.FU_type_0::IntDiv                 1393      0.00%     84.53% # Type of FU issued
system.cpu0.iq.FU_type_0::FloatAdd             417057      0.79%     85.32% # Type of FU issued
system.cpu0.iq.FU_type_0::FloatCmp                  0      0.00%     85.32% # Type of FU issued
system.cpu0.iq.FU_type_0::FloatCvt                  0      0.00%     85.32% # Type of FU issued
system.cpu0.iq.FU_type_0::FloatMult                 0      0.00%     85.32% # Type of FU issued
system.cpu0.iq.FU_type_0::FloatMultAcc              0      0.00%     85.32% # Type of FU issued
system.cpu0.iq.FU_type_0::FloatDiv                  0      0.00%     85.32% # Type of FU issued
system.cpu0.iq.FU_type_0::FloatMisc                 0      0.00%     85.32% # Type of FU issued
system.cpu0.iq.FU_type_0::FloatSqrt                 0      0.00%     85.32% # Type of FU issued
system.cpu0.iq.FU_type_0::SimdAdd                   0      0.00%     85.32% # Type of FU issued
system.cpu0.iq.FU_type_0::SimdAddAcc                0      0.00%     85.32% # Type of FU issued
system.cpu0.iq.FU_type_0::SimdAlu                   0      0.00%     85.32% # Type of FU issued
system.cpu0.iq.FU_type_0::SimdCmp                   0      0.00%     85.32% # Type of FU issued
system.cpu0.iq.FU_type_0::SimdCvt                   0      0.00%     85.32% # Type of FU issued
system.cpu0.iq.FU_type_0::SimdMisc                  0      0.00%     85.32% # Type of FU issued
system.cpu0.iq.FU_type_0::SimdMult                  0      0.00%     85.32% # Type of FU issued
system.cpu0.iq.FU_type_0::SimdMultAcc               0      0.00%     85.32% # Type of FU issued
system.cpu0.iq.FU_type_0::SimdShift                 0      0.00%     85.32% # Type of FU issued
system.cpu0.iq.FU_type_0::SimdShiftAcc              0      0.00%     85.32% # Type of FU issued
system.cpu0.iq.FU_type_0::SimdSqrt                  0      0.00%     85.32% # Type of FU issued
system.cpu0.iq.FU_type_0::SimdFloatAdd              0      0.00%     85.32% # Type of FU issued
system.cpu0.iq.FU_type_0::SimdFloatAlu              0      0.00%     85.32% # Type of FU issued
system.cpu0.iq.FU_type_0::SimdFloatCmp              0      0.00%     85.32% # Type of FU issued
system.cpu0.iq.FU_type_0::SimdFloatCvt              0      0.00%     85.32% # Type of FU issued
system.cpu0.iq.FU_type_0::SimdFloatDiv              0      0.00%     85.32% # Type of FU issued
system.cpu0.iq.FU_type_0::SimdFloatMisc             0      0.00%     85.32% # Type of FU issued
system.cpu0.iq.FU_type_0::SimdFloatMult             0      0.00%     85.32% # Type of FU issued
system.cpu0.iq.FU_type_0::SimdFloatMultAcc            0      0.00%     85.32% # Type of FU issued
system.cpu0.iq.FU_type_0::SimdFloatSqrt             0      0.00%     85.32% # Type of FU issued
system.cpu0.iq.FU_type_0::MemRead             1516685      2.88%     88.19% # Type of FU issued
system.cpu0.iq.FU_type_0::MemWrite            5797694     11.00%     99.19% # Type of FU issued
system.cpu0.iq.FU_type_0::FloatMemRead         231742      0.44%     99.63% # Type of FU issued
system.cpu0.iq.FU_type_0::FloatMemWrite        193936      0.37%    100.00% # Type of FU issued
system.cpu0.iq.FU_type_0::IprAccess                 0      0.00%    100.00% # Type of FU issued
system.cpu0.iq.FU_type_0::InstPrefetch              0      0.00%    100.00% # Type of FU issued
system.cpu0.iq.FU_type_0::total              52711645                       # Type of FU issued
system.cpu0.iq.rate                          1.726287                       # Inst issue rate
system.cpu0.iq.fu_busy_cnt                     385478                       # FU busy when requested
system.cpu0.iq.fu_busy_rate                  0.007313                       # FU busy rate (busy events/executed inst)
system.cpu0.iq.int_inst_queue_reads         134466857                       # Number of integer instruction queue reads
system.cpu0.iq.int_inst_queue_writes         52796513                       # Number of integer instruction queue writes
system.cpu0.iq.int_inst_queue_wakeup_accesses     51676917                       # Number of integer instruction queue wakeup accesses
system.cpu0.iq.fp_inst_queue_reads            1880624                       # Number of floating instruction queue reads
system.cpu0.iq.fp_inst_queue_writes           1035383                       # Number of floating instruction queue writes
system.cpu0.iq.fp_inst_queue_wakeup_accesses       922145                       # Number of floating instruction queue wakeup accesses
system.cpu0.iq.vec_inst_queue_reads                 0                       # Number of vector instruction queue reads
system.cpu0.iq.vec_inst_queue_writes                0                       # Number of vector instruction queue writes
system.cpu0.iq.vec_inst_queue_wakeup_accesses            0                       # Number of vector instruction queue wakeup accesses
system.cpu0.iq.int_alu_accesses              52128021                       # Number of integer alu accesses
system.cpu0.iq.fp_alu_accesses                 948453                       # Number of floating point alu accesses
system.cpu0.iq.vec_alu_accesses                     0                       # Number of vector alu accesses
system.cpu0.iew.lsq.thread0.forwLoads            7690                       # Number of loads that had data forwarded from stores
system.cpu0.iew.lsq.thread0.invAddrLoads            0                       # Number of loads ignored due to an invalid address
system.cpu0.iew.lsq.thread0.squashedLoads       114283                       # Number of loads squashed
system.cpu0.iew.lsq.thread0.ignoredResponses          153                       # Number of memory responses ignored because the instruction is squashed
system.cpu0.iew.lsq.thread0.memOrderViolation          995                       # Number of memory ordering violations
system.cpu0.iew.lsq.thread0.squashedStores        62039                       # Number of stores squashed
system.cpu0.iew.lsq.thread0.invAddrSwpfs            0                       # Number of software prefetches ignored due to an invalid address
system.cpu0.iew.lsq.thread0.blockedLoads            0                       # Number of blocked loads due to partial load-store forwarding
system.cpu0.iew.lsq.thread0.rescheduledLoads           54                       # Number of loads that were rescheduled
system.cpu0.iew.lsq.thread0.cacheBlocked          545                       # Number of times an access to memory failed due to the cache being blocked
system.cpu0.iew.iewIdleCycles                       0                       # Number of cycles IEW is idle
system.cpu0.iew.iewSquashCycles                 32102                       # Number of cycles IEW is squashing
system.cpu0.iew.iewBlockCycles                  97922                       # Number of cycles IEW is blocking
system.cpu0.iew.iewUnblockCycles                76845                       # Number of cycles IEW is unblocking
system.cpu0.iew.iewDispatchedInsts           53015114                       # Number of instructions dispatched to IQ
system.cpu0.iew.iewDispSquashedInsts             3200                       # Number of squashed instructions skipped by dispatch
system.cpu0.iew.iewDispLoadInsts              1786646                       # Number of dispatched load instructions
system.cpu0.iew.iewDispStoreInsts             6023240                       # Number of dispatched store instructions
system.cpu0.iew.iewDispNonSpecInsts              1587                       # Number of dispatched non-speculative instructions
system.cpu0.iew.iewIQFullEvents                   554                       # Number of times the IQ has become full, causing a stall
system.cpu0.iew.iewLSQFullEvents                76147                       # Number of times the LSQ has become full, causing a stall
system.cpu0.iew.memOrderViolationEvents           995                       # Number of memory order violations
system.cpu0.iew.predictedTakenIncorrect          8469                       # Number of branches that were predicted taken incorrectly
system.cpu0.iew.predictedNotTakenIncorrect        30775                       # Number of branches that were predicted not taken incorrectly
system.cpu0.iew.branchMispredicts               39244                       # Number of branch mispredicts detected at execute
system.cpu0.iew.iewExecutedInsts             52634498                       # Number of executed instructions
system.cpu0.iew.iewExecLoadInsts              1733466                       # Number of load instructions executed
system.cpu0.iew.iewExecSquashedInsts            77146                       # Number of squashed instructions skipped in execute
system.cpu0.iew.exec_swp                            0                       # number of swp insts executed
system.cpu0.iew.exec_nop                            0                       # number of nop insts executed
system.cpu0.iew.exec_refs                     7717938                       # number of memory reference insts executed
system.cpu0.iew.exec_branches                 5925137                       # Number of branches executed
system.cpu0.iew.exec_stores                   5984472                       # Number of stores executed
system.cpu0.iew.exec_rate                    1.723761                       # Inst execution rate
system.cpu0.iew.wb_sent                      52615021                       # cumulative count of insts sent to commit
system.cpu0.iew.wb_count                     52599062                       # cumulative count of insts written-back
system.cpu0.iew.wb_producers                 38470113                       # num instructions producing a value
system.cpu0.iew.wb_consumers                 53655380                       # num instructions consuming a value
system.cpu0.iew.wb_rate                      1.722600                       # insts written-back per cycle
system.cpu0.iew.wb_fanout                    0.716985                       # average fanout of values written-back
system.cpu0.commit.commitSquashedInsts         816307                       # The number of squashed insts skipped by commit
system.cpu0.commit.commitNonSpecStalls            567                       # The number of times commit has been forced to stall to communicate backwards
system.cpu0.commit.branchMispredicts            31389                       # The number of times a branch was mispredicted
system.cpu0.commit.committed_per_cycle::samples     30401911                       # Number of insts commited each cycle
system.cpu0.commit.committed_per_cycle::mean     1.716973                       # Number of insts commited each cycle
system.cpu0.commit.committed_per_cycle::stdev     2.309412                       # Number of insts commited each cycle
system.cpu0.commit.committed_per_cycle::underflows            0      0.00%      0.00% # Number of insts commited each cycle
system.cpu0.commit.committed_per_cycle::0     16563618     54.48%     54.48% # Number of insts commited each cycle
system.cpu0.commit.committed_per_cycle::1      1670446      5.49%     59.98% # Number of insts commited each cycle
system.cpu0.commit.committed_per_cycle::2      1521188      5.00%     64.98% # Number of insts commited each cycle
system.cpu0.commit.committed_per_cycle::3      5204734     17.12%     82.10% # Number of insts commited each cycle
system.cpu0.commit.committed_per_cycle::4       362938      1.19%     83.29% # Number of insts commited each cycle
system.cpu0.commit.committed_per_cycle::5      3126689     10.28%     93.58% # Number of insts commited each cycle
system.cpu0.commit.committed_per_cycle::6       360430      1.19%     94.76% # Number of insts commited each cycle
system.cpu0.commit.committed_per_cycle::7       110491      0.36%     95.13% # Number of insts commited each cycle
system.cpu0.commit.committed_per_cycle::8      1481377      4.87%    100.00% # Number of insts commited each cycle
system.cpu0.commit.committed_per_cycle::overflows            0      0.00%    100.00% # Number of insts commited each cycle
system.cpu0.commit.committed_per_cycle::min_value            0                       # Number of insts commited each cycle
system.cpu0.commit.committed_per_cycle::max_value            8                       # Number of insts commited each cycle
system.cpu0.commit.committed_per_cycle::total     30401911                       # Number of insts commited each cycle
system.cpu0.commit.committedInsts            25774119                       # Number of instructions committed
system.cpu0.commit.committedOps              52199254                       # Number of ops (including micro ops) committed
system.cpu0.commit.swp_count                        0                       # Number of s/w prefetches committed
system.cpu0.commit.refs                       7633563                       # Number of memory references committed
system.cpu0.commit.loads                      1672363                       # Number of loads committed
system.cpu0.commit.membars                        200                       # Number of memory barriers committed
system.cpu0.commit.branches                   5894044                       # Number of branches committed
system.cpu0.commit.vec_insts                        0                       # Number of committed Vector instructions.
system.cpu0.commit.fp_insts                    905267                       # Number of committed floating point instructions.
system.cpu0.commit.int_insts                 51713541                       # Number of committed integer instructions.
system.cpu0.commit.function_calls                5553                       # Number of function calls committed.
system.cpu0.commit.op_class_0::No_OpClass        11329      0.02%      0.02% # Class of committed instruction
system.cpu0.commit.op_class_0::IntAlu        44145096     84.57%     84.59% # Class of committed instruction
system.cpu0.commit.op_class_0::IntMult            355      0.00%     84.59% # Class of committed instruction
system.cpu0.commit.op_class_0::IntDiv            1154      0.00%     84.59% # Class of committed instruction
system.cpu0.commit.op_class_0::FloatAdd        407757      0.78%     85.38% # Class of committed instruction
system.cpu0.commit.op_class_0::FloatCmp             0      0.00%     85.38% # Class of committed instruction
system.cpu0.commit.op_class_0::FloatCvt             0      0.00%     85.38% # Class of committed instruction
system.cpu0.commit.op_class_0::FloatMult            0      0.00%     85.38% # Class of committed instruction
system.cpu0.commit.op_class_0::FloatMultAcc            0      0.00%     85.38% # Class of committed instruction
system.cpu0.commit.op_class_0::FloatDiv             0      0.00%     85.38% # Class of committed instruction
system.cpu0.commit.op_class_0::FloatMisc            0      0.00%     85.38% # Class of committed instruction
system.cpu0.commit.op_class_0::FloatSqrt            0      0.00%     85.38% # Class of committed instruction
system.cpu0.commit.op_class_0::SimdAdd              0      0.00%     85.38% # Class of committed instruction
system.cpu0.commit.op_class_0::SimdAddAcc            0      0.00%     85.38% # Class of committed instruction
system.cpu0.commit.op_class_0::SimdAlu              0      0.00%     85.38% # Class of committed instruction
system.cpu0.commit.op_class_0::SimdCmp              0      0.00%     85.38% # Class of committed instruction
system.cpu0.commit.op_class_0::SimdCvt              0      0.00%     85.38% # Class of committed instruction
system.cpu0.commit.op_class_0::SimdMisc             0      0.00%     85.38% # Class of committed instruction
system.cpu0.commit.op_class_0::SimdMult             0      0.00%     85.38% # Class of committed instruction
system.cpu0.commit.op_class_0::SimdMultAcc            0      0.00%     85.38% # Class of committed instruction
system.cpu0.commit.op_class_0::SimdShift            0      0.00%     85.38% # Class of committed instruction
system.cpu0.commit.op_class_0::SimdShiftAcc            0      0.00%     85.38% # Class of committed instruction
system.cpu0.commit.op_class_0::SimdSqrt             0      0.00%     85.38% # Class of committed instruction
system.cpu0.commit.op_class_0::SimdFloatAdd            0      0.00%     85.38% # Class of committed instruction
system.cpu0.commit.op_class_0::SimdFloatAlu            0      0.00%     85.38% # Class of committed instruction
system.cpu0.commit.op_class_0::SimdFloatCmp            0      0.00%     85.38% # Class of committed instruction
system.cpu0.commit.op_class_0::SimdFloatCvt            0      0.00%     85.38% # Class of committed instruction
system.cpu0.commit.op_class_0::SimdFloatDiv            0      0.00%     85.38% # Class of committed instruction
system.cpu0.commit.op_class_0::SimdFloatMisc            0      0.00%     85.38% # Class of committed instruction
system.cpu0.commit.op_class_0::SimdFloatMult            0      0.00%     85.38% # Class of committed instruction
system.cpu0.commit.op_class_0::SimdFloatMultAcc            0      0.00%     85.38% # Class of committed instruction
system.cpu0.commit.op_class_0::SimdFloatSqrt            0      0.00%     85.38% # Class of committed instruction
system.cpu0.commit.op_class_0::MemRead        1451256      2.78%     88.16% # Class of committed instruction
system.cpu0.commit.op_class_0::MemWrite       5769462     11.05%     99.21% # Class of committed instruction
system.cpu0.commit.op_class_0::FloatMemRead       221107      0.42%     99.63% # Class of committed instruction
system.cpu0.commit.op_class_0::FloatMemWrite       191738      0.37%    100.00% # Class of committed instruction
system.cpu0.commit.op_class_0::IprAccess            0      0.00%    100.00% # Class of committed instruction
system.cpu0.commit.op_class_0::InstPrefetch            0      0.00%    100.00% # Class of committed instruction
system.cpu0.commit.op_class_0::total         52199254                       # Class of committed instruction
system.cpu0.commit.bw_lim_events              1481377                       # number cycles where commit BW limit reached
system.cpu0.rob.rob_reads                    81936095                       # The number of ROB reads
system.cpu0.rob.rob_writes                  106161033                       # The number of ROB writes
system.cpu0.timesIdled                            865                       # Number of times that the entire CPU went into an idle state and unscheduled itself
system.cpu0.idleCycles                           5537                       # Total number of cycles that the CPU has spent unscheduled due to idling
system.cpu0.committedInsts                   25774119                       # Number of Instructions Simulated
system.cpu0.committedOps                     52199254                       # Number of Ops (including micro ops) Simulated
system.cpu0.cpi                              1.184703                       # CPI: Cycles Per Instruction
system.cpu0.cpi_total                        1.184703                       # CPI: Total CPI of All Threads
system.cpu0.ipc                              0.844093                       # IPC: Instructions Per Cycle
system.cpu0.ipc_total                        0.844093                       # IPC: Total IPC of All Threads
system.cpu0.int_regfile_reads                60210295                       # number of integer regfile reads
system.cpu0.int_regfile_writes               39959425                       # number of integer regfile writes
system.cpu0.fp_regfile_reads                  1429416                       # number of floating regfile reads
system.cpu0.fp_regfile_writes                  724785                       # number of floating regfile writes
system.cpu0.cc_regfile_reads                 29556433                       # number of cc regfile reads
system.cpu0.cc_regfile_writes                26529041                       # number of cc regfile writes
system.cpu0.misc_regfile_reads               19602239                       # number of misc regfile reads
system.cpu0.dcache.tags.pwrStateResidencyTicks::UNDEFINED  15267344125                       # Cumulative time (in ticks) in various power states
system.cpu0.dcache.tags.replacements           734650                       # number of replacements
system.cpu0.dcache.tags.tagsinuse                1024                       # Cycle average of tags in use
system.cpu0.dcache.tags.total_refs            7086918                       # Total number of references to valid blocks.
system.cpu0.dcache.tags.sampled_refs           734650                       # Sample count of references to valid blocks.
system.cpu0.dcache.tags.avg_refs             9.646659                       # Average number of references to valid blocks.
system.cpu0.dcache.tags.warmup_cycle                0                       # Cycle when the warmup percentage was hit.
system.cpu0.dcache.tags.occ_blocks::cpu0.data         1024                       # Average occupied blocks per requestor
system.cpu0.dcache.tags.occ_percent::cpu0.data            1                       # Average percentage of cache occupancy
system.cpu0.dcache.tags.occ_percent::total            1                       # Average percentage of cache occupancy
system.cpu0.dcache.tags.occ_task_id_blocks::1024         1024                       # Occupied blocks per task id
system.cpu0.dcache.tags.age_task_id_blocks_1024::0          577                       # Occupied blocks per task id
system.cpu0.dcache.tags.age_task_id_blocks_1024::1          447                       # Occupied blocks per task id
system.cpu0.dcache.tags.occ_task_id_percent::1024            1                       # Percentage of cache occupancy per task id
system.cpu0.dcache.tags.tag_accesses         31472834                       # Number of tag accesses
system.cpu0.dcache.tags.data_accesses        31472834                       # Number of data accesses
system.cpu0.dcache.pwrStateResidencyTicks::UNDEFINED  15267344125                       # Cumulative time (in ticks) in various power states
system.cpu0.dcache.ReadReq_hits::cpu0.data      1709865                       # number of ReadReq hits
system.cpu0.dcache.ReadReq_hits::total        1709865                       # number of ReadReq hits
system.cpu0.dcache.WriteReq_hits::cpu0.data      5233236                       # number of WriteReq hits
system.cpu0.dcache.WriteReq_hits::total       5233236                       # number of WriteReq hits
system.cpu0.dcache.demand_hits::cpu0.data      6943101                       # number of demand (read+write) hits
system.cpu0.dcache.demand_hits::total         6943101                       # number of demand (read+write) hits
system.cpu0.dcache.overall_hits::cpu0.data      6943101                       # number of overall hits
system.cpu0.dcache.overall_hits::total        6943101                       # number of overall hits
system.cpu0.dcache.ReadReq_misses::cpu0.data        13329                       # number of ReadReq misses
system.cpu0.dcache.ReadReq_misses::total        13329                       # number of ReadReq misses
system.cpu0.dcache.WriteReq_misses::cpu0.data       728116                       # number of WriteReq misses
system.cpu0.dcache.WriteReq_misses::total       728116                       # number of WriteReq misses
system.cpu0.dcache.demand_misses::cpu0.data       741445                       # number of demand (read+write) misses
system.cpu0.dcache.demand_misses::total        741445                       # number of demand (read+write) misses
system.cpu0.dcache.overall_misses::cpu0.data       741445                       # number of overall misses
system.cpu0.dcache.overall_misses::total       741445                       # number of overall misses
system.cpu0.dcache.ReadReq_miss_latency::cpu0.data    161417000                       # number of ReadReq miss cycles
system.cpu0.dcache.ReadReq_miss_latency::total    161417000                       # number of ReadReq miss cycles
system.cpu0.dcache.WriteReq_miss_latency::cpu0.data   9468453499                       # number of WriteReq miss cycles
system.cpu0.dcache.WriteReq_miss_latency::total   9468453499                       # number of WriteReq miss cycles
system.cpu0.dcache.demand_miss_latency::cpu0.data   9629870499                       # number of demand (read+write) miss cycles
system.cpu0.dcache.demand_miss_latency::total   9629870499                       # number of demand (read+write) miss cycles
system.cpu0.dcache.overall_miss_latency::cpu0.data   9629870499                       # number of overall miss cycles
system.cpu0.dcache.overall_miss_latency::total   9629870499                       # number of overall miss cycles
system.cpu0.dcache.ReadReq_accesses::cpu0.data      1723194                       # number of ReadReq accesses(hits+misses)
system.cpu0.dcache.ReadReq_accesses::total      1723194                       # number of ReadReq accesses(hits+misses)
system.cpu0.dcache.WriteReq_accesses::cpu0.data      5961352                       # number of WriteReq accesses(hits+misses)
system.cpu0.dcache.WriteReq_accesses::total      5961352                       # number of WriteReq accesses(hits+misses)
system.cpu0.dcache.demand_accesses::cpu0.data      7684546                       # number of demand (read+write) accesses
system.cpu0.dcache.demand_accesses::total      7684546                       # number of demand (read+write) accesses
system.cpu0.dcache.overall_accesses::cpu0.data      7684546                       # number of overall (read+write) accesses
system.cpu0.dcache.overall_accesses::total      7684546                       # number of overall (read+write) accesses
system.cpu0.dcache.ReadReq_miss_rate::cpu0.data     0.007735                       # miss rate for ReadReq accesses
system.cpu0.dcache.ReadReq_miss_rate::total     0.007735                       # miss rate for ReadReq accesses
system.cpu0.dcache.WriteReq_miss_rate::cpu0.data     0.122139                       # miss rate for WriteReq accesses
system.cpu0.dcache.WriteReq_miss_rate::total     0.122139                       # miss rate for WriteReq accesses
system.cpu0.dcache.demand_miss_rate::cpu0.data     0.096485                       # miss rate for demand accesses
system.cpu0.dcache.demand_miss_rate::total     0.096485                       # miss rate for demand accesses
system.cpu0.dcache.overall_miss_rate::cpu0.data     0.096485                       # miss rate for overall accesses
system.cpu0.dcache.overall_miss_rate::total     0.096485                       # miss rate for overall accesses
system.cpu0.dcache.ReadReq_avg_miss_latency::cpu0.data 12110.210819                       # average ReadReq miss latency
system.cpu0.dcache.ReadReq_avg_miss_latency::total 12110.210819                       # average ReadReq miss latency
system.cpu0.dcache.WriteReq_avg_miss_latency::cpu0.data 13004.045371                       # average WriteReq miss latency
system.cpu0.dcache.WriteReq_avg_miss_latency::total 13004.045371                       # average WriteReq miss latency
system.cpu0.dcache.demand_avg_miss_latency::cpu0.data 12987.976855                       # average overall miss latency
system.cpu0.dcache.demand_avg_miss_latency::total 12987.976855                       # average overall miss latency
system.cpu0.dcache.overall_avg_miss_latency::cpu0.data 12987.976855                       # average overall miss latency
system.cpu0.dcache.overall_avg_miss_latency::total 12987.976855                       # average overall miss latency
system.cpu0.dcache.blocked_cycles::no_mshrs         2256                       # number of cycles access was blocked
system.cpu0.dcache.blocked_cycles::no_targets            0                       # number of cycles access was blocked
system.cpu0.dcache.blocked::no_mshrs              294                       # number of cycles access was blocked
system.cpu0.dcache.blocked::no_targets              0                       # number of cycles access was blocked
system.cpu0.dcache.avg_blocked_cycles::no_mshrs     7.673469                       # average number of cycles each access was blocked
system.cpu0.dcache.avg_blocked_cycles::no_targets          nan                       # average number of cycles each access was blocked
system.cpu0.dcache.writebacks::writebacks       730442                       # number of writebacks
system.cpu0.dcache.writebacks::total           730442                       # number of writebacks
system.cpu0.dcache.ReadReq_mshr_hits::cpu0.data         6771                       # number of ReadReq MSHR hits
system.cpu0.dcache.ReadReq_mshr_hits::total         6771                       # number of ReadReq MSHR hits
system.cpu0.dcache.WriteReq_mshr_hits::cpu0.data           18                       # number of WriteReq MSHR hits
system.cpu0.dcache.WriteReq_mshr_hits::total           18                       # number of WriteReq MSHR hits
system.cpu0.dcache.demand_mshr_hits::cpu0.data         6789                       # number of demand (read+write) MSHR hits
system.cpu0.dcache.demand_mshr_hits::total         6789                       # number of demand (read+write) MSHR hits
system.cpu0.dcache.overall_mshr_hits::cpu0.data         6789                       # number of overall MSHR hits
system.cpu0.dcache.overall_mshr_hits::total         6789                       # number of overall MSHR hits
system.cpu0.dcache.ReadReq_mshr_misses::cpu0.data         6558                       # number of ReadReq MSHR misses
system.cpu0.dcache.ReadReq_mshr_misses::total         6558                       # number of ReadReq MSHR misses
system.cpu0.dcache.WriteReq_mshr_misses::cpu0.data       728098                       # number of WriteReq MSHR misses
system.cpu0.dcache.WriteReq_mshr_misses::total       728098                       # number of WriteReq MSHR misses
system.cpu0.dcache.demand_mshr_misses::cpu0.data       734656                       # number of demand (read+write) MSHR misses
system.cpu0.dcache.demand_mshr_misses::total       734656                       # number of demand (read+write) MSHR misses
system.cpu0.dcache.overall_mshr_misses::cpu0.data       734656                       # number of overall MSHR misses
system.cpu0.dcache.overall_mshr_misses::total       734656                       # number of overall MSHR misses
system.cpu0.dcache.ReadReq_mshr_miss_latency::cpu0.data     85101000                       # number of ReadReq MSHR miss cycles
system.cpu0.dcache.ReadReq_mshr_miss_latency::total     85101000                       # number of ReadReq MSHR miss cycles
system.cpu0.dcache.WriteReq_mshr_miss_latency::cpu0.data   8740173999                       # number of WriteReq MSHR miss cycles
system.cpu0.dcache.WriteReq_mshr_miss_latency::total   8740173999                       # number of WriteReq MSHR miss cycles
[...]
system.l2.overall_accesses::total              737526                       # number of overall (read+write) accesses
system.l2.ReadExReq_miss_rate::cpu0.data     0.000007                       # miss rate for ReadExReq accesses
system.l2.ReadExReq_miss_rate::total         0.000007                       # miss rate for ReadExReq accesses
system.l2.ReadCleanReq_miss_rate::cpu0.inst     0.002087                       # miss rate for ReadCleanReq accesses
system.l2.ReadCleanReq_miss_rate::total      0.002087                       # miss rate for ReadCleanReq accesses
system.l2.ReadSharedReq_miss_rate::cpu0.data     0.001372                       # miss rate for ReadSharedReq accesses
system.l2.ReadSharedReq_miss_rate::total     0.001372                       # miss rate for ReadSharedReq accesses
system.l2.demand_miss_rate::cpu0.inst        0.002087                       # miss rate for demand accesses
system.l2.demand_miss_rate::cpu0.data        0.000019                       # miss rate for demand accesses
system.l2.demand_miss_rate::total            0.000027                       # miss rate for demand accesses
system.l2.overall_miss_rate::cpu0.inst       0.002087                       # miss rate for overall accesses
system.l2.overall_miss_rate::cpu0.data       0.000019                       # miss rate for overall accesses
system.l2.overall_miss_rate::total           0.000027                       # miss rate for overall accesses
system.l2.ReadExReq_avg_miss_latency::cpu0.data       509100                       # average ReadExReq miss latency
system.l2.ReadExReq_avg_miss_latency::total       509100                       # average ReadExReq miss latency
system.l2.ReadCleanReq_avg_miss_latency::cpu0.inst 436166.666667                       # average ReadCleanReq miss latency
system.l2.ReadCleanReq_avg_miss_latency::total 436166.666667                       # average ReadCleanReq miss latency
system.l2.ReadSharedReq_avg_miss_latency::cpu0.data 493166.666667                       # average ReadSharedReq miss latency
system.l2.ReadSharedReq_avg_miss_latency::total 493166.666667                       # average ReadSharedReq miss latency
system.l2.demand_avg_miss_latency::cpu0.inst 436166.666667                       # average overall miss latency
system.l2.demand_avg_miss_latency::cpu0.data 498857.142857                       # average overall miss latency
system.l2.demand_avg_miss_latency::total       480050                       # average overall miss latency
system.l2.overall_avg_miss_latency::cpu0.inst 436166.666667                       # average overall miss latency
system.l2.overall_avg_miss_latency::cpu0.data 498857.142857                       # average overall miss latency
system.l2.overall_avg_miss_latency::total       480050                       # average overall miss latency
system.l2.blocked_cycles::no_mshrs                  0                       # number of cycles access was blocked
system.l2.blocked_cycles::no_targets                0                       # number of cycles access was blocked
system.l2.blocked::no_mshrs                         0                       # number of cycles access was blocked
system.l2.blocked::no_targets                       0                       # number of cycles access was blocked
system.l2.avg_blocked_cycles::no_mshrs            nan                       # average number of cycles each access was blocked
system.l2.avg_blocked_cycles::no_targets          nan                       # average number of cycles each access was blocked
system.l2.ReadExReq_mshr_misses::cpu0.data            5                       # number of ReadExReq MSHR misses
system.l2.ReadExReq_mshr_misses::total              5                       # number of ReadExReq MSHR misses
system.l2.ReadCleanReq_mshr_misses::cpu0.inst            6                       # number of ReadCleanReq MSHR misses
system.l2.ReadCleanReq_mshr_misses::total            6                       # number of ReadCleanReq MSHR misses
system.l2.ReadSharedReq_mshr_misses::cpu0.data            9                       # number of ReadSharedReq MSHR misses
system.l2.ReadSharedReq_mshr_misses::total            9                       # number of ReadSharedReq MSHR misses
system.l2.demand_mshr_misses::cpu0.inst             6                       # number of demand (read+write) MSHR misses
system.l2.demand_mshr_misses::cpu0.data            14                       # number of demand (read+write) MSHR misses
system.l2.demand_mshr_misses::total                20                       # number of demand (read+write) MSHR misses
system.l2.overall_mshr_misses::cpu0.inst            6                       # number of overall MSHR misses
system.l2.overall_mshr_misses::cpu0.data           14                       # number of overall MSHR misses
system.l2.overall_mshr_misses::total               20                       # number of overall MSHR misses
system.l2.ReadExReq_mshr_miss_latency::cpu0.data      2495500                       # number of ReadExReq MSHR miss cycles
system.l2.ReadExReq_mshr_miss_latency::total      2495500                       # number of ReadExReq MSHR miss cycles
system.l2.ReadCleanReq_mshr_miss_latency::cpu0.inst      2557000                       # number of ReadCleanReq MSHR miss cycles
system.l2.ReadCleanReq_mshr_miss_latency::total      2557000                       # number of ReadCleanReq MSHR miss cycles
system.l2.ReadSharedReq_mshr_miss_latency::cpu0.data      4348500                       # number of ReadSharedReq MSHR miss cycles
system.l2.ReadSharedReq_mshr_miss_latency::total      4348500                       # number of ReadSharedReq MSHR miss cycles
system.l2.demand_mshr_miss_latency::cpu0.inst      2557000                       # number of demand (read+write) MSHR miss cycles
system.l2.demand_mshr_miss_latency::cpu0.data      6844000                       # number of demand (read+write) MSHR miss cycles
system.l2.demand_mshr_miss_latency::total      9401000                       # number of demand (read+write) MSHR miss cycles
system.l2.overall_mshr_miss_latency::cpu0.inst      2557000                       # number of overall MSHR miss cycles
system.l2.overall_mshr_miss_latency::cpu0.data      6844000                       # number of overall MSHR miss cycles
system.l2.overall_mshr_miss_latency::total      9401000                       # number of overall MSHR miss cycles
system.l2.ReadExReq_mshr_miss_rate::cpu0.data     0.000007                       # mshr miss rate for ReadExReq accesses
system.l2.ReadExReq_mshr_miss_rate::total     0.000007                       # mshr miss rate for ReadExReq accesses
system.l2.ReadCleanReq_mshr_miss_rate::cpu0.inst     0.002087                       # mshr miss rate for ReadCleanReq accesses
system.l2.ReadCleanReq_mshr_miss_rate::total     0.002087                       # mshr miss rate for ReadCleanReq accesses
system.l2.ReadSharedReq_mshr_miss_rate::cpu0.data     0.001372                       # mshr miss rate for ReadSharedReq accesses
system.l2.ReadSharedReq_mshr_miss_rate::total     0.001372                       # mshr miss rate for ReadSharedReq accesses
system.l2.demand_mshr_miss_rate::cpu0.inst     0.002087                       # mshr miss rate for demand accesses
system.l2.demand_mshr_miss_rate::cpu0.data     0.000019                       # mshr miss rate for demand accesses
system.l2.demand_mshr_miss_rate::total       0.000027                       # mshr miss rate for demand accesses
system.l2.overall_mshr_miss_rate::cpu0.inst     0.002087                       # mshr miss rate for overall accesses
system.l2.overall_mshr_miss_rate::cpu0.data     0.000019                       # mshr miss rate for overall accesses
system.l2.overall_mshr_miss_rate::total      0.000027                       # mshr miss rate for overall accesses
system.l2.ReadExReq_avg_mshr_miss_latency::cpu0.data       499100                       # average ReadExReq mshr miss latency
system.l2.ReadExReq_avg_mshr_miss_latency::total       499100                       # average ReadExReq mshr miss latency
system.l2.ReadCleanReq_avg_mshr_miss_latency::cpu0.inst 426166.666667                       # average ReadCleanReq mshr miss latency
system.l2.ReadCleanReq_avg_mshr_miss_latency::total 426166.666667                       # average ReadCleanReq mshr miss latency
system.l2.ReadSharedReq_avg_mshr_miss_latency::cpu0.data 483166.666667                       # average ReadSharedReq mshr miss latency
system.l2.ReadSharedReq_avg_mshr_miss_latency::total 483166.666667                       # average ReadSharedReq mshr miss latency
system.l2.demand_avg_mshr_miss_latency::cpu0.inst 426166.666667                       # average overall mshr miss latency
system.l2.demand_avg_mshr_miss_latency::cpu0.data 488857.142857                       # average overall mshr miss latency
system.l2.demand_avg_mshr_miss_latency::total       470050                       # average overall mshr miss latency
system.l2.overall_avg_mshr_miss_latency::cpu0.inst 426166.666667                       # average overall mshr miss latency
system.l2.overall_avg_mshr_miss_latency::cpu0.data 488857.142857                       # average overall mshr miss latency
system.l2.overall_avg_mshr_miss_latency::total       470050                       # average overall mshr miss latency
system.membus.snoop_filter.tot_requests            43                       # Total number of requests made to the snoop filter.
system.membus.snoop_filter.hit_single_requests           23                       # Number of requests hitting in the snoop filter with a single holder of the requested data.
system.membus.snoop_filter.hit_multi_requests            0                       # Number of requests hitting in the snoop filter with multiple (>1) holders of the requested data.
system.membus.snoop_filter.tot_snoops               0                       # Total number of snoops made to the snoop filter.
system.membus.snoop_filter.hit_single_snoops            0                       # Number of snoops hitting in the snoop filter with a single holder of the requested data.
system.membus.snoop_filter.hit_multi_snoops            0                       # Number of snoops hitting in the snoop filter with multiple (>1) holders of the requested data.
system.membus.pwrStateResidencyTicks::UNDEFINED  15267344125                       # Cumulative time (in ticks) in various power states
system.membus.trans_dist::ReadResp                 15                       # Transaction distribution
system.membus.trans_dist::CleanEvict               23                       # Transaction distribution
system.membus.trans_dist::ReadExReq                 5                       # Transaction distribution
system.membus.trans_dist::ReadExResp                5                       # Transaction distribution
system.membus.trans_dist::ReadSharedReq            15                       # Transaction distribution
system.membus.pkt_count_system.l2.mem_side::system.mem_ctrls.port           63                       # Packet count per connected master and slave (bytes)
system.membus.pkt_count_system.l2.mem_side::total           63                       # Packet count per connected master and slave (bytes)
system.membus.pkt_count::total                     63                       # Packet count per connected master and slave (bytes)
system.membus.pkt_size_system.l2.mem_side::system.mem_ctrls.port         1280                       # Cumulative packet size per connected master and slave (bytes)
system.membus.pkt_size_system.l2.mem_side::total         1280                       # Cumulative packet size per connected master and slave (bytes)
system.membus.pkt_size::total                    1280                       # Cumulative packet size per connected master and slave (bytes)
system.membus.snoops                                0                       # Total snoops (count)
system.membus.snoopTraffic                          0                       # Total snoop traffic (bytes)
system.membus.snoop_fanout::samples                20                       # Request fanout histogram
system.membus.snoop_fanout::mean                    0                       # Request fanout histogram
system.membus.snoop_fanout::stdev                   0                       # Request fanout histogram
system.membus.snoop_fanout::underflows              0      0.00%      0.00% # Request fanout histogram
system.membus.snoop_fanout::0                      20    100.00%    100.00% # Request fanout histogram
system.membus.snoop_fanout::1                       0      0.00%    100.00% # Request fanout histogram
system.membus.snoop_fanout::overflows               0      0.00%    100.00% # Request fanout histogram
system.membus.snoop_fanout::min_value               0                       # Request fanout histogram
system.membus.snoop_fanout::max_value               0                       # Request fanout histogram
system.membus.snoop_fanout::total                  20                       # Request fanout histogram
system.membus.reqLayer8.occupancy               49000                       # Layer occupancy (ticks)
system.membus.reqLayer8.utilization               0.0                       # Layer utilization (%)
system.membus.respLayer1.occupancy             109250                       # Layer occupancy (ticks)
system.membus.respLayer1.utilization              0.0                       # Layer utilization (%)
system.tol2bus.snoop_filter.tot_requests      1475057                       # Total number of requests made to the snoop filter.
system.tol2bus.snoop_filter.hit_single_requests       737525                       # Number of requests hitting in the snoop filter with a single holder of the requested data.
system.tol2bus.snoop_filter.hit_multi_requests          367                       # Number of requests hitting in the snoop filter with multiple (>1) holders of the requested data.
system.tol2bus.snoop_filter.tot_snoops              0                       # Total number of snoops made to the snoop filter.
system.tol2bus.snoop_filter.hit_single_snoops            0                       # Number of snoops hitting in the snoop filter with a single holder of the requested data.
system.tol2bus.snoop_filter.hit_multi_snoops            0                       # Number of snoops hitting in the snoop filter with multiple (>1) holders of the requested data.
system.tol2bus.pwrStateResidencyTicks::UNDEFINED  15267344125                       # Cumulative time (in ticks) in various power states
system.tol2bus.trans_dist::ReadResp              9436                       # Transaction distribution
system.tol2bus.trans_dist::WritebackDirty       730442                       # Transaction distribution
system.tol2bus.trans_dist::WritebackClean         2873                       # Transaction distribution
system.tol2bus.trans_dist::CleanEvict            4231                       # Transaction distribution
system.tol2bus.trans_dist::UpgradeReq               5                       # Transaction distribution
system.tol2bus.trans_dist::UpgradeResp              5                       # Transaction distribution
system.tol2bus.trans_dist::ReadExReq           728093                       # Transaction distribution
system.tol2bus.trans_dist::ReadExResp          728092                       # Transaction distribution
system.tol2bus.trans_dist::ReadCleanReq          2878                       # Transaction distribution
system.tol2bus.trans_dist::ReadSharedReq         6558                       # Transaction distribution
system.tol2bus.pkt_count_system.cpu0.icache.mem_side::system.l2.cpu_side         8626                       # Packet count per connected master and slave (bytes)
system.tol2bus.pkt_count_system.cpu0.dcache.mem_side::system.l2.cpu_side      2203961                       # Packet count per connected master and slave (bytes)
system.tol2bus.pkt_count::total               2212587                       # Packet count per connected master and slave (bytes)
system.tol2bus.pkt_size_system.cpu0.icache.mem_side::system.l2.cpu_side       367872                       # Cumulative packet size per connected master and slave (bytes)
system.tol2bus.pkt_size_system.cpu0.dcache.mem_side::system.l2.cpu_side     93765888                       # Cumulative packet size per connected master and slave (bytes)
system.tol2bus.pkt_size::total               94133760                       # Cumulative packet size per connected master and slave (bytes)
system.tol2bus.snoops                              26                       # Total snoops (count)
system.tol2bus.snoopTraffic                       192                       # Total snoop traffic (bytes)
system.tol2bus.snoop_fanout::samples           737557                       # Request fanout histogram
system.tol2bus.snoop_fanout::mean            0.000498                       # Request fanout histogram
system.tol2bus.snoop_fanout::stdev           0.022301                       # Request fanout histogram
system.tol2bus.snoop_fanout::underflows             0      0.00%      0.00% # Request fanout histogram
system.tol2bus.snoop_fanout::0                 737190     99.95%     99.95% # Request fanout histogram
system.tol2bus.snoop_fanout::1                    367      0.05%    100.00% # Request fanout histogram
system.tol2bus.snoop_fanout::2                      0      0.00%    100.00% # Request fanout histogram
system.tol2bus.snoop_fanout::3                      0      0.00%    100.00% # Request fanout histogram
system.tol2bus.snoop_fanout::4                      0      0.00%    100.00% # Request fanout histogram
system.tol2bus.snoop_fanout::5                      0      0.00%    100.00% # Request fanout histogram
system.tol2bus.snoop_fanout::6                      0      0.00%    100.00% # Request fanout histogram
system.tol2bus.snoop_fanout::7                      0      0.00%    100.00% # Request fanout histogram
system.tol2bus.snoop_fanout::8                      0      0.00%    100.00% # Request fanout histogram
system.tol2bus.snoop_fanout::9                      0      0.00%    100.00% # Request fanout histogram
system.tol2bus.snoop_fanout::10                     0      0.00%    100.00% # Request fanout histogram
system.tol2bus.snoop_fanout::11                     0      0.00%    100.00% # Request fanout histogram
system.tol2bus.snoop_fanout::12                     0      0.00%    100.00% # Request fanout histogram
system.tol2bus.snoop_fanout::13                     0      0.00%    100.00% # Request fanout histogram
system.tol2bus.snoop_fanout::14                     0      0.00%    100.00% # Request fanout histogram
system.tol2bus.snoop_fanout::15                     0      0.00%    100.00% # Request fanout histogram
system.tol2bus.snoop_fanout::16                     0      0.00%    100.00% # Request fanout histogram
system.tol2bus.snoop_fanout::overflows              0      0.00%    100.00% # Request fanout histogram
system.tol2bus.snoop_fanout::min_value              0                       # Request fanout histogram
system.tol2bus.snoop_fanout::max_value              1                       # Request fanout histogram
system.tol2bus.snoop_fanout::total             737557                       # Request fanout histogram
system.tol2bus.reqLayer0.occupancy         1470843500                       # Layer occupancy (ticks)
system.tol2bus.reqLayer0.utilization              9.6                       # Layer utilization (%)
system.tol2bus.respLayer0.occupancy           4338956                       # Layer occupancy (ticks)
system.tol2bus.respLayer0.utilization             0.0                       # Layer utilization (%)
system.tol2bus.respLayer1.occupancy        1101977500                       # Layer occupancy (ticks)
system.tol2bus.respLayer1.utilization             7.2                       # Layer utilization (%)

---------- End Simulation Statistics   ----------
