
---------- Begin Simulation Statistics ----------
sim_seconds                                  0.015267                       # Number of seconds simulated
sim_ticks                                 15267344125                       # Number of ticks simulated
final_tick                               7603137374250                       # Number of ticks from beginning of simulation (restored from checkpoints and never reset)
sim_freq                                 1000000000000                       # Frequency of simulated ticks
host_inst_rate                               75517597                       # Simulator instruction rate (inst/s)
host_op_rate                                140806434                       # Simulator op (including micro ops) rate (op/s)
host_tick_rate                              190143233                       # Simulator tick rate (ticks/s)
host_mem_usage                                2332680                       # Number of bytes of host memory used
host_seconds                                    80.29                       # Real time elapsed on the host
sim_insts                                  6063600594                       # Number of instructions simulated
sim_ops                                   11305897070                       # Number of ops (including micro ops) simulated
system.voltage_domain.voltage                       1                       # Voltage in Volts
system.clk_domain.clock                          1000                       # Clock period in ticks
system.mem_ctrls.pwrStateResidencyTicks::UNDEFINED  15267344125                       # Cumulative time (in ticks) in various power states
system.mem_ctrls.bytes_read::cpu0.data       12088512                       # Number of bytes read from this memory
system.mem_ctrls.bytes_read::total           12088512                       # Number of bytes read from this memory
system.mem_ctrls.bytes_written::writebacks        18688                       # Number of bytes written to this memory
system.mem_ctrls.bytes_written::total           18688                       # Number of bytes written to this memory
system.mem_ctrls.num_reads::cpu0.data          188883                       # Number of read requests responded to by this memory
system.mem_ctrls.num_reads::total              188883                       # Number of read requests responded to by this memory
system.mem_ctrls.num_writes::writebacks           292                       # Number of write requests responded to by this memory
system.mem_ctrls.num_writes::total                292                       # Number of write requests responded to by this memory
system.mem_ctrls.bw_read::cpu0.data         791788795                       # Total read bandwidth from this memory (bytes/s)
system.mem_ctrls.bw_read::total             791788795                       # Total read bandwidth from this memory (bytes/s)
system.mem_ctrls.bw_write::writebacks         1224050                       # Write bandwidth from this memory (bytes/s)
system.mem_ctrls.bw_write::total              1224050                       # Write bandwidth from this memory (bytes/s)
system.mem_ctrls.bw_total::writebacks         1224050                       # Total bandwidth to/from this memory (bytes/s)
system.mem_ctrls.bw_total::cpu0.data        791788795                       # Total bandwidth to/from this memory (bytes/s)
system.mem_ctrls.bw_total::total            793012845                       # Total bandwidth to/from this memory (bytes/s)
system.mem_ctrls.readReqs                      188881                       # Number of read requests accepted
system.mem_ctrls.writeReqs                        292                       # Number of write requests accepted
system.mem_ctrls.readBursts                    188881                       # Number of DRAM read bursts, including those serviced by the write queue
system.mem_ctrls.writeBursts                      292                       # Number of DRAM write bursts, including those merged in the write queue
system.mem_ctrls.bytesReadDRAM               12085056                       # Total number of bytes read from DRAM
system.mem_ctrls.bytesReadWrQ                    3328                       # Total number of bytes read from write queue
system.mem_ctrls.bytesWritten                   19456                       # Total number of bytes written to DRAM
system.mem_ctrls.bytesReadSys                12088384                       # Total read bytes from the system interface side
system.mem_ctrls.bytesWrittenSys                18688                       # Total written bytes from the system interface side
system.mem_ctrls.servicedByWrQ                     52                       # Number of DRAM read bursts serviced by the write queue
system.mem_ctrls.mergedWrBursts                     0                       # Number of DRAM write bursts merged with an existing one
system.mem_ctrls.neitherReadNorWriteReqs            0                       # Number of requests that are neither read nor write
system.mem_ctrls.perBankRdBursts::0             12018                       # Per bank write bursts
system.mem_ctrls.perBankRdBursts::1             11693                       # Per bank write bursts
system.mem_ctrls.perBankRdBursts::2             11822                       # Per bank write bursts
system.mem_ctrls.perBankRdBursts::3             11840                       # Per bank write bursts
system.mem_ctrls.perBankRdBursts::4             11907                       # Per bank write bursts
system.mem_ctrls.perBankRdBursts::5             11701                       # Per bank write bursts
system.mem_ctrls.perBankRdBursts::6             11601                       # Per bank write bursts
system.mem_ctrls.perBankRdBursts::7             12108                       # Per bank write bursts
system.mem_ctrls.perBankRdBursts::8             11475                       # Per bank write bursts
system.mem_ctrls.perBankRdBursts::9             11330                       # Per bank write bursts
system.mem_ctrls.perBankRdBursts::10            11551                       # Per bank write bursts
system.mem_ctrls.perBankRdBursts::11            11855                       # Per bank write bursts
system.mem_ctrls.perBankRdBursts::12            12088                       # Per bank write bursts
system.mem_ctrls.perBankRdBursts::13            12099                       # Per bank write bursts
system.mem_ctrls.perBankRdBursts::14            11878                       # Per bank write bursts
system.mem_ctrls.perBankRdBursts::15            11863                       # Per bank write bursts
system.mem_ctrls.perBankWrBursts::0                 0                       # Per bank write bursts
system.mem_ctrls.perBankWrBursts::1                 0                       # Per bank write bursts
system.mem_ctrls.perBankWrBursts::2                18                       # Per bank write bursts
system.mem_ctrls.perBankWrBursts::3                 0                       # Per bank write bursts
system.mem_ctrls.perBankWrBursts::4                 0                       # Per bank write bursts
system.mem_ctrls.perBankWrBursts::5                 0                       # Per bank write bursts
system.mem_ctrls.perBankWrBursts::6                34                       # Per bank write bursts
system.mem_ctrls.perBankWrBursts::7               128                       # Per bank write bursts
system.mem_ctrls.perBankWrBursts::8                51                       # Per bank write bursts
system.mem_ctrls.perBankWrBursts::9                 0                       # Per bank write bursts
system.mem_ctrls.perBankWrBursts::10                0                       # Per bank write bursts
system.mem_ctrls.perBankWrBursts::11                0                       # Per bank write bursts
system.mem_ctrls.perBankWrBursts::12               73                       # Per bank write bursts
system.mem_ctrls.perBankWrBursts::13                0                       # Per bank write bursts
system.mem_ctrls.perBankWrBursts::14                0                       # Per bank write bursts
system.mem_ctrls.perBankWrBursts::15                0                       # Per bank write bursts
system.mem_ctrls.numRdRetry                         0                       # Number of times read queue was full causing retry
system.mem_ctrls.numWrRetry                         0                       # Number of times write queue was full causing retry
system.mem_ctrls.totGap                   15267289000                       # Total gap between requests
system.mem_ctrls.readPktSize::0                     0                       # Read request sizes (log2)
system.mem_ctrls.readPktSize::1                     0                       # Read request sizes (log2)
system.mem_ctrls.readPktSize::2                     0                       # Read request sizes (log2)
system.mem_ctrls.readPktSize::3                     0                       # Read request sizes (log2)
system.mem_ctrls.readPktSize::4                     0                       # Read request sizes (log2)
system.mem_ctrls.readPktSize::5                     0                       # Read request sizes (log2)
system.mem_ctrls.readPktSize::6                188881                       # Read request sizes (log2)
system.mem_ctrls.writePktSize::0                    0                       # Write request sizes (log2)
system.mem_ctrls.writePktSize::1                    0                       # Write request sizes (log2)
system.mem_ctrls.writePktSize::2                    0                       # Write request sizes (log2)
system.mem_ctrls.writePktSize::3                    0                       # Write request sizes (log2)
system.mem_ctrls.writePktSize::4                    0                       # Write request sizes (log2)
system.mem_ctrls.writePktSize::5                    0                       # Write request sizes (log2)
system.mem_ctrls.writePktSize::6                  292                       # Write request sizes (log2)
system.mem_ctrls.rdQLenPdf::0                  144145                       # What read queue length does an incoming req see
system.mem_ctrls.rdQLenPdf::1                   41934                       # What read queue length does an incoming req see
system.mem_ctrls.rdQLenPdf::2                    2704                       # What read queue length does an incoming req see
system.mem_ctrls.rdQLenPdf::3                      46                       # What read queue length does an incoming req see
system.mem_ctrls.rdQLenPdf::4                       0                       # What read queue length does an incoming req see
system.mem_ctrls.rdQLenPdf::5                       0                       # What read queue length does an incoming req see
system.mem_ctrls.rdQLenPdf::6                       0                       # What read queue length does an incoming req see
system.mem_ctrls.rdQLenPdf::7                       0                       # What read queue length does an incoming req see
system.mem_ctrls.rdQLenPdf::8                       0                       # What read queue length does an incoming req see
system.mem_ctrls.rdQLenPdf::9                       0                       # What read queue length does an incoming req see
system.mem_ctrls.rdQLenPdf::10                      0                       # What read queue length does an incoming req see
system.mem_ctrls.rdQLenPdf::11                      0                       # What read queue length does an incoming req see
system.mem_ctrls.rdQLenPdf::12                      0                       # What read queue length does an incoming req see
system.mem_ctrls.rdQLenPdf::13                      0                       # What read queue length does an incoming req see
system.mem_ctrls.rdQLenPdf::14                      0                       # What read queue length does an incoming req see
system.mem_ctrls.rdQLenPdf::15                      0                       # What read queue length does an incoming req see
system.mem_ctrls.rdQLenPdf::16                      0                       # What read queue length does an incoming req see
system.mem_ctrls.rdQLenPdf::17                      0                       # What read queue length does an incoming req see
system.mem_ctrls.rdQLenPdf::18                      0                       # What read queue length does an incoming req see
system.mem_ctrls.rdQLenPdf::19                      0                       # What read queue length does an incoming req see
system.mem_ctrls.rdQLenPdf::20                      0                       # What read queue length does an incoming req see
system.mem_ctrls.rdQLenPdf::21                      0                       # What read queue length does an incoming req see
system.mem_ctrls.rdQLenPdf::22                      0                       # What read queue length does an incoming req see
system.mem_ctrls.rdQLenPdf::23                      0                       # What read queue length does an incoming req see
system.mem_ctrls.rdQLenPdf::24                      0                       # What read queue length does an incoming req see
system.mem_ctrls.rdQLenPdf::25                      0                       # What read queue length does an incoming req see
system.mem_ctrls.rdQLenPdf::26                      0                       # What read queue length does an incoming req see
system.mem_ctrls.rdQLenPdf::27                      0                       # What read queue length does an incoming req see
system.mem_ctrls.rdQLenPdf::28                      0                       # What read queue length does an incoming req see
system.mem_ctrls.rdQLenPdf::29                      0                       # What read queue length does an incoming req see
system.mem_ctrls.rdQLenPdf::30                      0                       # What read queue length does an incoming req see
system.mem_ctrls.rdQLenPdf::31                      0                       # What read queue length does an incoming req see
system.mem_ctrls.wrQLenPdf::0                       0                       # What write queue length does an incoming req see
system.mem_ctrls.wrQLenPdf::1                       0                       # What write queue length does an incoming req see
system.mem_ctrls.wrQLenPdf::2                       0                       # What write queue length does an incoming req see
system.mem_ctrls.wrQLenPdf::3                       0                       # What write queue length does an incoming req see
system.mem_ctrls.wrQLenPdf::4                       0                       # What write queue length does an incoming req see
system.mem_ctrls.wrQLenPdf::5                       0                       # What write queue length does an incoming req see
system.mem_ctrls.wrQLenPdf::6                       0                       # What write queue length does an incoming req see
system.mem_ctrls.wrQLenPdf::7                       0                       # What write queue length does an incoming req see
system.mem_ctrls.wrQLenPdf::8                       0                       # What write queue length does an incoming req see
system.mem_ctrls.wrQLenPdf::9                       0                       # What write queue length does an incoming req see
system.mem_ctrls.wrQLenPdf::10                      0                       # What write queue length does an incoming req see
system.mem_ctrls.wrQLenPdf::11                      0                       # What write queue length does an incoming req see
system.mem_ctrls.wrQLenPdf::12                      0                       # What write queue length does an incoming req see
system.mem_ctrls.wrQLenPdf::13                      0                       # What write queue length does an incoming req see
system.mem_ctrls.wrQLenPdf::14                      0                       # What write queue length does an incoming req see
system.mem_ctrls.wrQLenPdf::15                      0                       # What write queue length does an incoming req see
system.mem_ctrls.wrQLenPdf::16                      0                       # What write queue length does an incoming req see
system.mem_ctrls.wrQLenPdf::17                     19                       # What write queue length does an incoming req see
system.mem_ctrls.wrQLenPdf::18                     18                       # What write queue length does an incoming req see
system.mem_ctrls.wrQLenPdf::19                     18                       # What write queue length does an incoming req see
system.mem_ctrls.wrQLenPdf::20                     18                       # What write queue length does an incoming req see
system.mem_ctrls.wrQLenPdf::21                     18                       # What write queue length does an incoming req see
system.mem_ctrls.wrQLenPdf::22                     18                       # What write queue length does an incoming req see
system.mem_ctrls.wrQLenPdf::23                     18                       # What write queue length does an incoming req see
system.mem_ctrls.wrQLenPdf::24                     18                       # What write queue length does an incoming req see
system.mem_ctrls.wrQLenPdf::25                     18                       # What write queue length does an incoming req see
system.mem_ctrls.wrQLenPdf::26                     18                       # What write queue length does an incoming req see
system.mem_ctrls.wrQLenPdf::27                     18                       # What write queue length does an incoming req see
system.mem_ctrls.wrQLenPdf::28                     18                       # What write queue length does an incoming req see
system.mem_ctrls.wrQLenPdf::29                     18                       # What write queue length does an incoming req see
system.mem_ctrls.wrQLenPdf::30                     19                       # What write queue length does an incoming req see
system.mem_ctrls.wrQLenPdf::31                     19                       # What write queue length does an incoming req see
system.mem_ctrls.wrQLenPdf::32                     19                       # What write queue length does an incoming req see
system.mem_ctrls.wrQLenPdf::33                      0                       # What write queue length does an incoming req see
system.mem_ctrls.wrQLenPdf::34                      0                       # What write queue length does an incoming req see
system.mem_ctrls.wrQLenPdf::35                      0                       # What write queue length does an incoming req see
system.mem_ctrls.wrQLenPdf::36                      0                       # What write queue length does an incoming req see
system.mem_ctrls.wrQLenPdf::37                      0                       # What write queue length does an incoming req see
system.mem_ctrls.wrQLenPdf::38                      0                       # What write queue length does an incoming req see
system.mem_ctrls.wrQLenPdf::39                      0                       # What write queue length does an incoming req see
system.mem_ctrls.wrQLenPdf::40                      0                       # What write queue length does an incoming req see
system.mem_ctrls.wrQLenPdf::41                      0                       # What write queue length does an incoming req see
system.mem_ctrls.wrQLenPdf::42                      0                       # What write queue length does an incoming req see
system.mem_ctrls.wrQLenPdf::43                      0                       # What write queue length does an incoming req see
system.mem_ctrls.wrQLenPdf::44                      0                       # What write queue length does an incoming req see
system.mem_ctrls.wrQLenPdf::45                      0                       # What write queue length does an incoming req see
system.mem_ctrls.wrQLenPdf::46                      0                       # What write queue length does an incoming req see
system.mem_ctrls.wrQLenPdf::47                      0                       # What write queue length does an incoming req see
system.mem_ctrls.wrQLenPdf::48                      0                       # What write queue length does an incoming req see
system.mem_ctrls.wrQLenPdf::49                      0                       # What write queue length does an incoming req see
system.mem_ctrls.wrQLenPdf::50                      0                       # What write queue length does an incoming req see
system.mem_ctrls.wrQLenPdf::51                      0                       # What write queue length does an incoming req see
system.mem_ctrls.wrQLenPdf::52                      0                       # What write queue length does an incoming req see
system.mem_ctrls.wrQLenPdf::53                      0                       # What write queue length does an incoming req see
system.mem_ctrls.wrQLenPdf::54                      0                       # What write queue length does an incoming req see
system.mem_ctrls.wrQLenPdf::55                      0                       # What write queue length does an incoming req see
system.mem_ctrls.wrQLenPdf::56                      0                       # What write queue length does an incoming req see
system.mem_ctrls.wrQLenPdf::57                      0                       # What write queue length does an incoming req see
system.mem_ctrls.wrQLenPdf::58                      0                       # What write queue length does an incoming req see
system.mem_ctrls.wrQLenPdf::59                      0                       # What write queue length does an incoming req see
system.mem_ctrls.wrQLenPdf::60                      0                       # What write queue length does an incoming req see
system.mem_ctrls.wrQLenPdf::61                      0                       # What write queue length does an incoming req see
system.mem_ctrls.wrQLenPdf::62                      0                       # What write queue length does an incoming req see
system.mem_ctrls.wrQLenPdf::63                      0                       # What write queue length does an incoming req see
system.mem_ctrls.bytesPerActivate::samples        97557                       # Bytes accessed per row activation
system.mem_ctrls.bytesPerActivate::mean    124.076960                       # Bytes accessed per row activation
system.mem_ctrls.bytesPerActivate::gmean   106.949133                       # Bytes accessed per row activation
system.mem_ctrls.bytesPerActivate::stdev    74.041819                       # Bytes accessed per row activation
system.mem_ctrls.bytesPerActivate::0-127        44696     45.82%     45.82% # Bytes accessed per row activation
system.mem_ctrls.bytesPerActivate::128-255        43078     44.16%     89.97% # Bytes accessed per row activation
system.mem_ctrls.bytesPerActivate::256-383         8557      8.77%     98.74% # Bytes accessed per row activation
system.mem_ctrls.bytesPerActivate::384-511         1114      1.14%     99.89% # Bytes accessed per row activation
system.mem_ctrls.bytesPerActivate::512-639           92      0.09%     99.98% # Bytes accessed per row activation
system.mem_ctrls.bytesPerActivate::640-767            8      0.01%     99.99% # Bytes accessed per row activation
system.mem_ctrls.bytesPerActivate::768-895            3      0.00%     99.99% # Bytes accessed per row activation
system.mem_ctrls.bytesPerActivate::896-1023            4      0.00%     99.99% # Bytes accessed per row activation
system.mem_ctrls.bytesPerActivate::1024-1151            5      0.01%    100.00% # Bytes accessed per row activation
system.mem_ctrls.bytesPerActivate::total        97557                       # Bytes accessed per row activation
system.mem_ctrls.rdPerTurnAround::samples           19                       # Reads before turning the bus around for writes
system.mem_ctrls.rdPerTurnAround::mean   10245.210526                       # Reads before turning the bus around for writes
system.mem_ctrls.rdPerTurnAround::gmean   9948.495503                       # Reads before turning the bus around for writes
system.mem_ctrls.rdPerTurnAround::stdev   2384.451336                       # Reads before turning the bus around for writes
system.mem_ctrls.rdPerTurnAround::4608-5119            1      5.26%      5.26% # Reads before turning the bus around for writes
system.mem_ctrls.rdPerTurnAround::7168-7679            3     15.79%     21.05% # Reads before turning the bus around for writes
system.mem_ctrls.rdPerTurnAround::8704-9215            2     10.53%     31.58% # Reads before turning the bus around for writes
system.mem_ctrls.rdPerTurnAround::9216-9727            1      5.26%     36.84% # Reads before turning the bus around for writes
system.mem_ctrls.rdPerTurnAround::9728-10239            3     15.79%     52.63% # Reads before turning the bus around for writes
system.mem_ctrls.rdPerTurnAround::10240-10751            1      5.26%     57.89% # Reads before turning the bus around for writes
system.mem_ctrls.rdPerTurnAround::10752-11263            1      5.26%     63.16% # Reads before turning the bus around for writes
system.mem_ctrls.rdPerTurnAround::11264-11775            1      5.26%     68.42% # Reads before turning the bus around for writes
system.mem_ctrls.rdPerTurnAround::11776-12287            3     15.79%     84.21% # Reads before turning the bus around for writes
system.mem_ctrls.rdPerTurnAround::12800-13311            1      5.26%     89.47% # Reads before turning the bus around for writes
system.mem_ctrls.rdPerTurnAround::13312-13823            1      5.26%     94.74% # Reads before turning the bus around for writes
system.mem_ctrls.rdPerTurnAround::13824-14335            1      5.26%    100.00% # Reads before turning the bus around for writes
system.mem_ctrls.rdPerTurnAround::total            19                       # Reads before turning the bus around for writes
system.mem_ctrls.wrPerTurnAround::samples           19                       # Writes before turning the bus around for reads
system.mem_ctrls.wrPerTurnAround::mean             16                       # Writes before turning the bus around for reads
system.mem_ctrls.wrPerTurnAround::gmean     16.000000                       # Writes before turning the bus around for reads
system.mem_ctrls.wrPerTurnAround::16               19    100.00%    100.00% # Writes before turning the bus around for reads
system.mem_ctrls.wrPerTurnAround::total            19                       # Writes before turning the bus around for reads
system.mem_ctrls.totQLat                   4665471500                       # Total ticks spent queuing
system.mem_ctrls.totMemAccLat              8206015250                       # Total ticks spent from burst creation until serviced by the DRAM
system.mem_ctrls.totBusLat                  944145000                       # Total ticks spent in databus transfers
system.mem_ctrls.avgQLat                     24707.39                       # Average queueing delay per DRAM burst
system.mem_ctrls.avgBusLat                    5000.00                       # Average bus latency per DRAM burst
system.mem_ctrls.avgMemAccLat                43457.39                       # Average memory access latency per DRAM burst
system.mem_ctrls.avgRdBW                       791.56                       # Average DRAM read bandwidth in MiByte/s
system.mem_ctrls.avgWrBW                         1.27                       # Average achieved write bandwidth in MiByte/s
system.mem_ctrls.avgRdBWSys                    791.78                       # Average system read bandwidth in MiByte/s
system.mem_ctrls.avgWrBWSys                      1.22                       # Average system write bandwidth in MiByte/s
system.mem_ctrls.peakBW                      12800.00                       # Theoretical peak bandwidth in MiByte/s
system.mem_ctrls.busUtil                         6.19                       # Data bus utilization in percentage
system.mem_ctrls.busUtilRead                     6.18                       # Data bus utilization in percentage for reads
system.mem_ctrls.busUtilWrite                    0.01                       # Data bus utilization in percentage for writes
system.mem_ctrls.avgRdQLen                       1.30                       # Average read queue length when enqueuing
system.mem_ctrls.avgWrQLen                      25.54                       # Average write queue length when enqueuing
system.mem_ctrls.readRowHits                    91311                       # Number of row buffer hits during reads
system.mem_ctrls.writeRowHits                     264                       # Number of row buffer hits during writes
system.mem_ctrls.readRowHitRate                 48.36                       # Row buffer hit rate for reads
system.mem_ctrls.writeRowHitRate                90.41                       # Row buffer hit rate for writes
system.mem_ctrls.avgGap                      80705.43                       # Average gap between requests
system.mem_ctrls.pageHitRate                    48.42                       # Row buffer hit rate, read and write combined
system.mem_ctrls_0.actEnergy                350031360                       # Energy for activate commands per rank (pJ)
system.mem_ctrls_0.preEnergy                186034695                       # Energy for precharge commands per rank (pJ)
system.mem_ctrls_0.readEnergy               676086600                       # Energy for read commands per rank (pJ)
system.mem_ctrls_0.writeEnergy                 939600                       # Energy for write commands per rank (pJ)
system.mem_ctrls_0.refreshEnergy         1205309040.000000                       # Energy for refresh commands per rank (pJ)
system.mem_ctrls_0.actBackEnergy           1611888180                       # Energy for active background per rank (pJ)
system.mem_ctrls_0.preBackEnergy             24594240                       # Energy for precharge background per rank (pJ)
system.mem_ctrls_0.actPowerDownEnergy      5199582750                       # Energy for active power-down per rank (pJ)
system.mem_ctrls_0.prePowerDownEnergy       101957280                       # Energy for precharge power-down per rank (pJ)
system.mem_ctrls_0.selfRefreshEnergy     635340.000000                       # Energy for self refresh per rank (pJ)
system.mem_ctrls_0.totalEnergy             9357059085                       # Total energy per rank (pJ)
system.mem_ctrls_0.averagePower            612.880604                       # Core power per rank (mW)
system.mem_ctrls_0.totalIdleTime          11668434250                       # Total Idle time Per DRAM Rank
system.mem_ctrls_0.memoryStateTime::IDLE      9702000                       # Time in different power states
system.mem_ctrls_0.memoryStateTime::REF     509866000                       # Time in different power states
system.mem_ctrls_0.memoryStateTime::SREF       346250                       # Time in different power states
system.mem_ctrls_0.memoryStateTime::PRE_PDN    265304000                       # Time in different power states
system.mem_ctrls_0.memoryStateTime::ACT    3079286875                       # Time in different power states
system.mem_ctrls_0.memoryStateTime::ACT_PDN  11402839000                       # Time in different power states
system.mem_ctrls_1.actEnergy                346532760                       # Energy for activate commands per rank (pJ)
system.mem_ctrls_1.preEnergy                184194120                       # Energy for precharge commands per rank (pJ)
system.mem_ctrls_1.readEnergy               672152460                       # Energy for read commands per rank (pJ)
system.mem_ctrls_1.writeEnergy                 647280                       # Energy for write commands per rank (pJ)
system.mem_ctrls_1.refreshEnergy         1205923680.000000                       # Energy for refresh commands per rank (pJ)
system.mem_ctrls_1.actBackEnergy           1603581000                       # Energy for active background per rank (pJ)
system.mem_ctrls_1.preBackEnergy             24625920                       # Energy for precharge background per rank (pJ)
system.mem_ctrls_1.actPowerDownEnergy      5189858550                       # Energy for active power-down per rank (pJ)
system.mem_ctrls_1.prePowerDownEnergy       117143040                       # Energy for precharge power-down per rank (pJ)
system.mem_ctrls_1.selfRefreshEnergy     614640.000000                       # Energy for self refresh per rank (pJ)
system.mem_ctrls_1.totalEnergy             9345283860                       # Total energy per rank (pJ)
system.mem_ctrls_1.averagePower            612.109335                       # Core power per rank (mW)
system.mem_ctrls_1.totalIdleTime          11686153875                       # Total Idle time Per DRAM Rank
system.mem_ctrls_1.memoryStateTime::IDLE      9894500                       # Time in different power states
system.mem_ctrls_1.memoryStateTime::REF     510126000                       # Time in different power states
system.mem_ctrls_1.memoryStateTime::SREF       235500                       # Time in different power states
system.mem_ctrls_1.memoryStateTime::PRE_PDN    304902500                       # Time in different power states
system.mem_ctrls_1.memoryStateTime::ACT    3060558750                       # Time in different power states
system.mem_ctrls_1.memoryStateTime::ACT_PDN  11381626875                       # Time in different power states
system.pwrStateResidencyTicks::UNDEFINED  15267344125                       # Cumulative time (in ticks) in various power states
system.cpu0.branchPred.lookups                1556216                       # Number of BP lookups
system.cpu0.branchPred.condPredicted          1556216                       # Number of conditional branches predicted
system.cpu0.branchPred.condIncorrect            60587                       # Number of conditional branches incorrect
system.cpu0.branchPred.BTBLookups             1181197                       # Number of BTB lookups
system.cpu0.branchPred.BTBHits                      0                       # Number of BTB hits
system.cpu0.branchPred.BTBCorrect                   0                       # Number of correct BTB predictions (this stat may not work properly.
system.cpu0.branchPred.BTBHitPct             0.000000                       # BTB Hit Percentage
system.cpu0.branchPred.usedRAS                  38491                       # Number of times the RAS was used to get a target.
system.cpu0.branchPred.RASInCorrect              6017                       # Number of incorrect RAS predictions.
system.cpu0.branchPred.indirectLookups        1181197                       # Number of indirect predictor lookups.
system.cpu0.branchPred.indirectHits            672505                       # Number of indirect target hits.
system.cpu0.branchPred.indirectMisses          508692                       # Number of indirect misses.
system.cpu0.branchPredindirectMispredicted        17821                       # Number of mispredicted indirect branches.
system.cpu_voltage_domain.voltage                   1                       # Voltage in Volts
system.cpu_clk_domain.clock                       500                       # Clock period in ticks
system.cpu0.dtb.walker.pwrStateResidencyTicks::UNDEFINED  15267344125                       # Cumulative time (in ticks) in various power states
system.cpu0.dtb.rdAccesses                     745462                       # TLB accesses on read requests
system.cpu0.dtb.wrAccesses                      44853                       # TLB accesses on write requests
system.cpu0.dtb.rdMisses                       162295                       # TLB misses on read requests
system.cpu0.dtb.wrMisses                          695                       # TLB misses on write requests
system.cpu0.apic_clk_domain.clock                8000                       # Clock period in ticks
system.cpu0.interrupts.pwrStateResidencyTicks::UNDEFINED  15267344125                       # Cumulative time (in ticks) in various power states
system.cpu0.itb.walker.pwrStateResidencyTicks::UNDEFINED  15267344125                       # Cumulative time (in ticks) in various power states
system.cpu0.itb.rdAccesses                          0                       # TLB accesses on read requests
system.cpu0.itb.wrAccesses                    1321268                       # TLB accesses on write requests
system.cpu0.itb.rdMisses                            0                       # TLB misses on read requests
system.cpu0.itb.wrMisses                         4184                       # TLB misses on write requests
system.cpu0.workload.numSyscalls                    0                       # Number of system calls
system.cpu0.pwrStateResidencyTicks::ON    15267344125                       # Cumulative time (in ticks) in various power states
system.cpu0.numCycles                        30534688                       # number of cpu cycles simulated
system.cpu0.numWorkItemsStarted                     0                       # number of work items this cpu started
system.cpu0.numWorkItemsCompleted                   0                       # number of work items this cpu completed
system.cpu0.fetch.icacheStallCycles           1348290                       # Number of cycles fetch is stalled on an Icache miss
system.cpu0.fetch.Insts                       4472380                       # Number of instructions fetch has processed
system.cpu0.fetch.Branches                    1556216                       # Number of branches that fetch encountered
system.cpu0.fetch.predictedBranches            710996                       # Number of branches that fetch has predicted taken
system.cpu0.fetch.Cycles                     29033912                       # Number of cycles fetch has run and was not squashing or blocked
system.cpu0.fetch.SquashCycles                 123990                       # Number of cycles fetch has spent squashing
system.cpu0.fetch.TlbCycles                      1886                       # Number of cycles fetch has spent waiting for tlb
system.cpu0.fetch.MiscStallCycles                1013                       # Number of cycles fetch has spent waiting on interrupts, or bad addresses, or out of MSHRs
system.cpu0.fetch.PendingTrapStallCycles        38609                       # Number of stall cycles due to pending traps
system.cpu0.fetch.CacheLines                  1317084                       # Number of cache lines fetched
system.cpu0.fetch.IcacheSquashes                 6508                       # Number of outstanding Icache misses that were squashed
system.cpu0.fetch.ItlbSquashes                      3                       # Number of outstanding ITLB misses that were squashed
system.cpu0.fetch.rateDist::samples          30485705                       # Number of instructions fetched each cycle (Total)
system.cpu0.fetch.rateDist::mean             0.294606                       # Number of instructions fetched each cycle (Total)
system.cpu0.fetch.rateDist::stdev            1.363841                       # Number of instructions fetched each cycle (Total)
system.cpu0.fetch.rateDist::underflows              0      0.00%      0.00% # Number of instructions fetched each cycle (Total)
system.cpu0.fetch.rateDist::0                28724966     94.22%     94.22% # Number of instructions fetched each cycle (Total)
system.cpu0.fetch.rateDist::1                   18080      0.06%     94.28% # Number of instructions fetched each cycle (Total)
system.cpu0.fetch.rateDist::2                  666252      2.19%     96.47% # Number of instructions fetched each cycle (Total)
system.cpu0.fetch.rateDist::3                   23396      0.08%     96.55% # Number of instructions fetched each cycle (Total)
system.cpu0.fetch.rateDist::4                  126167      0.41%     96.96% # Number of instructions fetched each cycle (Total)
system.cpu0.fetch.rateDist::5                   55368      0.18%     97.14% # Number of instructions fetched each cycle (Total)
system.cpu0.fetch.rateDist::6                   86318      0.28%     97.42% # Number of instructions fetched each cycle (Total)
system.cpu0.fetch.rateDist::7                   20190      0.07%     97.49% # Number of instructions fetched each cycle (Total)
system.cpu0.fetch.rateDist::8                  764968      2.51%    100.00% # Number of instructions fetched each cycle (Total)
system.cpu0.fetch.rateDist::overflows               0      0.00%    100.00% # Number of instructions fetched each cycle (Total)
system.cpu0.fetch.rateDist::min_value               0                       # Number of instructions fetched each cycle (Total)
system.cpu0.fetch.rateDist::max_value               8                       # Number of instructions fetched each cycle (Total)
system.cpu0.fetch.rateDist::total            30485705                       # Number of instructions fetched each cycle (Total)
system.cpu0.fetch.branchRate                 0.050966                       # Number of branch fetches per cycle
system.cpu0.fetch.rate                       0.146469                       # Number of inst fetches per cycle
system.cpu0.decode.IdleCycles                  647497                       # Number of cycles decode is idle
system.cpu0.decode.BlockedCycles             28638941                       # Number of cycles decode is blocked
system.cpu0.decode.RunCycles                   815875                       # Number of cycles decode is running
system.cpu0.decode.UnblockCycles               321397                       # Number of cycles decode is unblocking
system.cpu0.decode.SquashCycles                 61995                       # Number of cycles decode is squashing
system.cpu0.decode.DecodedInsts               7394748                       # Number of instructions handled by decode
system.cpu0.rename.SquashCycles                 61995                       # Number of cycles rename is squashing
system.cpu0.rename.IdleCycles                  742586                       # Number of cycles rename is idle
system.cpu0.rename.BlockCycles               27323846                       # Number of cycles rename is blocking
system.cpu0.rename.serializeStallCycles         12034                       # count of cycles rename stalled for serializing inst
system.cpu0.rename.RunCycles                   963910                       # Number of cycles rename is running
system.cpu0.rename.UnblockCycles              1381334                       # Number of cycles rename is unblocking
system.cpu0.rename.RenamedInsts               7111553                       # Number of instructions processed by rename
system.cpu0.rename.ROBFullEvents                69011                       # Number of times rename has blocked due to ROB full
system.cpu0.rename.IQFullEvents               1093014                       # Number of times rename has blocked due to IQ full
system.cpu0.rename.LQFullEvents                238015                       # Number of times rename has blocked due to LQ full
system.cpu0.rename.SQFullEvents                   909                       # Number of times rename has blocked due to SQ full
system.cpu0.rename.RenamedOperands            8484193                       # Number of destination operands rename has renamed
system.cpu0.rename.RenameLookups             19873063                       # Number of register rename lookups that rename has made
system.cpu0.rename.int_rename_lookups         9260410                       # Number of integer rename lookups
system.cpu0.rename.fp_rename_lookups            26969                       # Number of floating rename lookups
system.cpu0.rename.CommittedMaps              3121608                       # Number of HB maps that are committed
system.cpu0.rename.UndoneMaps                 5362584                       # Number of HB maps that are undone due to squashing
system.cpu0.rename.serializingInsts               216                       # count of serializing insts renamed
system.cpu0.rename.tempSerializingInsts           258                       # count of temporary serializing insts renamed
system.cpu0.rename.skidInsts                  2066708                       # count of insts added to the skid buffer
system.cpu0.memDep0.insertedLoads             1303515                       # Number of loads inserted to the mem dependence unit.
system.cpu0.memDep0.insertedStores              66501                       # Number of stores inserted to the mem dependence unit.
system.cpu0.memDep0.conflictingLoads             3419                       # Number of conflicting loads.
system.cpu0.memDep0.conflictingStores            4019                       # Number of conflicting stores.
system.cpu0.iq.iqInstsAdded                   6788224                       # Number of instructions added to the IQ (excludes non-spec)
system.cpu0.iq.iqNonSpecInstsAdded               4012                       # Number of non-speculative instructions added to the IQ
system.cpu0.iq.iqInstsIssued                  4873659                       # Number of instructions issued
system.cpu0.iq.iqSquashedInstsIssued             5193                       # Number of squashed instructions issued
system.cpu0.iq.iqSquashedInstsExamined        4188518                       # Number of squashed instructions iterated over during squash; mainly for profiling
system.cpu0.iq.iqSquashedOperandsExamined      8842785                       # Number of squashed operands that are examined and possibly removed from graph
system.cpu0.iq.iqSquashedNonSpecRemoved          4012                       # Number of squashed non-spec instructions that were removed
system.cpu0.iq.issued_per_cycle::samples     30485705                       # Number of insts issued each cycle
system.cpu0.iq.issued_per_cycle::mean        0.159867                       # Number of insts issued each cycle
system.cpu0.iq.issued_per_cycle::stdev       0.718582                       # Number of insts issued each cycle
system.cpu0.iq.issued_per_cycle::underflows            0      0.00%      0.00% # Number of insts issued each cycle
system.cpu0.iq.issued_per_cycle::0           28425636     93.24%     93.24% # Number of insts issued each cycle
system.cpu0.iq.issued_per_cycle::1             844713      2.77%     96.01% # Number of insts issued each cycle
system.cpu0.iq.issued_per_cycle::2             442550      1.45%     97.47% # Number of insts issued each cycle
system.cpu0.iq.issued_per_cycle::3             296354      0.97%     98.44% # Number of insts issued each cycle
system.cpu0.iq.issued_per_cycle::4             290992      0.95%     99.39% # Number of insts issued each cycle
system.cpu0.iq.issued_per_cycle::5              78479      0.26%     99.65% # Number of insts issued each cycle
system.cpu0.iq.issued_per_cycle::6              67706      0.22%     99.87% # Number of insts issued each cycle
system.cpu0.iq.issued_per_cycle::7              22015      0.07%     99.94% # Number of insts issued each cycle
system.cpu0.iq.issued_per_cycle::8              17260      0.06%    100.00% # Number of insts issued each cycle
system.cpu0.iq.issued_per_cycle::overflows            0      0.00%    100.00% # Number of insts issued each cycle
system.cpu0.iq.issued_per_cycle::min_value            0                       # Number of insts issued each cycle
system.cpu0.iq.issued_per_cycle::max_value            8                       # Number of insts issued each cycle
system.cpu0.iq.issued_per_cycle::total       30485705                       # Number of insts issued each cycle
system.cpu0.iq.fu_full::No_OpClass                  0      0.00%      0.00% # attempts to use FU when none available
system.cpu0.iq.fu_full::IntAlu                   8794     66.91%     66.91% # attempts to use FU when none available
system.cpu0.iq.fu_full::IntMult                     0      0.00%     66.91% # attempts to use FU when none available
system.cpu0.iq.fu_full::IntDiv                      0      0.00%     66.91% # attempts to use FU when none available
system.cpu0.iq.fu_full::FloatAdd                  848      6.45%     73.36% # attempts to use FU when none available
system.cpu0.iq.fu_full::FloatCmp                    0      0.00%     73.36% # attempts to use FU when none available
system.cpu0.iq.fu_full::FloatCvt                    0      0.00%     73.36% # attempts to use FU when none available
system.cpu0.iq.fu_full::FloatMult                   0      0.00%     73.36% # attempts to use FU when none available
system.cpu0.iq.fu_full::FloatMultAcc                0      0.00%     73.36% # attempts to use FU when none available
system.cpu0.iq.fu_full::FloatDiv                    0      0.00%     73.36% # attempts to use FU when none available
system.cpu0.iq.fu_full::FloatMisc                   0      0.00%     73.36% # attempts to use FU when none available
system.cpu0.iq.fu_full::FloatSqrt                   0      0.00%     73.36% # attempts to use FU when none available
system.cpu0.iq.fu_full::SimdAdd                     0      0.00%     73.36% # attempts to use FU when none available
system.cpu0.iq.fu_full::SimdAddAcc                  0      0.00%     73.36% # attempts to use FU when none available
system.cpu0.iq.fu_full::SimdAlu                     0      0.00%     73.36% # attempts to use FU when none available
system.cpu0.iq.fu_full::SimdCmp                     0      0.00%     73.36% # attempts to use FU when none available
system.cpu0.iq.fu_full::SimdCvt                     0      0.00%     73.36% # attempts to use FU when none available
system.cpu0.iq.fu_full::SimdMisc                    0      0.00%     73.36% # attempts to use FU when none available
system.cpu0.iq.fu_full::SimdMult                    0      0.00%     73.36% # attempts to use FU when none available
system.cpu0.iq.fu_full::SimdMultAcc                 0      0.00%     73.36% # attempts to use FU when none available
system.cpu0.iq.fu_full::SimdShift                   0      0.00%     73.36% # attempts to use FU when none available
system.cpu0.iq.fu_full::SimdShiftAcc                0      0.00%     73.36% # attempts to use FU when none available
system.cpu0.iq.fu_full::SimdSqrt                    0      0.00%     73.36% # attempts to use FU when none available
system.cpu0.iq.fu_full::SimdFloatAdd                0      0.00%     73.36% # attempts to use FU when none available
system.cpu0.iq.fu_full::SimdFloatAlu                0      0.00%     73.36% # attempts to use FU when none available
system.cpu0.iq.fu_full::SimdFloatCmp                0      0.00%     73.36% # attempts to use FU when none available
system.cpu0.iq.fu_full::SimdFloatCvt                0      0.00%     73.36% # attempts to use FU when none available
system.cpu0.iq.fu_full::SimdFloatDiv                0      0.00%     73.36% # attempts to use FU when none available
system.cpu0.iq.fu_full::SimdFloatMisc               0      0.00%     73.36% # attempts to use FU when none available
system.cpu0.iq.fu_full::SimdFloatMult               0      0.00%     73.36% # attempts to use FU when none available
system.cpu0.iq.fu_full::SimdFloatMultAcc            0      0.00%     73.36% # attempts to use FU when none available
system.cpu0.iq.fu_full::SimdFloatSqrt               0      0.00%     73.36% # attempts to use FU when none available
system.cpu0.iq.fu_full::MemRead                  3244     24.68%     98.04% # attempts to use FU when none available
system.cpu0.iq.fu_full::MemWrite                  216      1.64%     99.69% # attempts to use FU when none available
system.cpu0.iq.fu_full::FloatMemRead               29      0.22%     99.91% # attempts to use FU when none available
system.cpu0.iq.fu_full::FloatMemWrite              12      0.09%    100.00% # attempts to use FU when none available
system.cpu0.iq.fu_full::IprAccess                   0      0.00%    100.00% # attempts to use FU when none available
system.cpu0.iq.fu_full::InstPrefetch                0      0.00%    100.00% # attempts to use FU when none available
system.cpu0.iq.FU_type_0::No_OpClass            15026      0.31%      0.31% # Type of FU issued
system.cpu0.iq.FU_type_0::IntAlu              4014476     82.37%     82.68% # Type of FU issued
system.cpu0.iq.FU_type_0::IntMult                1124      0.02%     82.70% # Type of FU issued
system.cpu0.iq.FU_type_0::IntDiv                 7590      0.16%     82.86% # Type of FU issued
system.cpu0.iq.FU_type_0::FloatAdd              10753      0.22%     83.08% # Type of FU issued
system.cpu0.iq.FU_type_0::FloatCmp                  0      0.00%     83.08% # Type of FU issued
system.cpu0.iq.FU_type_0::FloatCvt                  0      0.00%     83.08% # Type of FU issued
system.cpu0.iq.FU_type_0::FloatMult                 0      0.00%     83.08% # Type of FU issued
system.cpu0.iq.FU_type_0::FloatMultAcc              0      0.00%     83.08% # Type of FU issued
system.cpu0.iq.FU_type_0::FloatDiv                  0      0.00%     83.08% # Type of FU issued
system.cpu0.iq.FU_type_0::FloatMisc                 0      0.00%     83.08% # Type of FU issued
system.cpu0.iq.FU_type_0::FloatSqrt                 0      0.00%     83.08% # Type of FU issued
system.cpu0.iq.FU_type_0::SimdAdd                   0      0.00%     83.08% # Type of FU issued
system.cpu0.iq.FU_type_0::SimdAddAcc                0      0.00%     83.08% # Type of FU issued
system.cpu0.iq.FU_type_0::SimdAlu                   0      0.00%     83.08% # Type of FU issued
system.cpu0.iq.FU_type_0::SimdCmp                   0      0.00%     83.08% # Type of FU issued
system.cpu0.iq.FU_type_0::SimdCvt                   0      0.00%     83.08% # Type of FU issued
system.cpu0.iq.FU_type_0::SimdMisc                  0      0.00%     83.08% # Type of FU issued
system.cpu0.iq.FU_type_0::SimdMult                  0      0.00%     83.08% # Type of FU issued
system.cpu0.iq.FU_type_0::SimdMultAcc               0      0.00%     83.08% # Type of FU issued
system.cpu0.iq.FU_type_0::SimdShift                 0      0.00%     83.08% # Type of FU issued
system.cpu0.iq.FU_type_0::SimdShiftAcc              0      0.00%     83.08% # Type of FU issued
system.cpu0.iq.FU_type_0::SimdSqrt                  0      0.00%     83.08% # Type of FU issued
system.cpu0.iq.FU_type_0::SimdFloatAdd              0      0.00%     83.08% # Type of FU issued
system.cpu0.iq.FU_type_0::SimdFloatAlu              0      0.00%     83.08% # Type of FU issued
system.cpu0.iq.FU_type_0::SimdFloatCmp              0      0.00%     83.08% # Type of FU issued
system.cpu0.iq.FU_type_0::SimdFloatCvt              0      0.00%     83.08% # Type of FU issued
system.cpu0.iq.FU_type_0::SimdFloatDiv              0      0.00%     83.08% # Type of FU issued
system.cpu0.iq.FU_type_0::SimdFloatMisc             0      0.00%     83.08% # Type of FU issued
system.cpu0.iq.FU_type_0::SimdFloatMult             0      0.00%     83.08% # Type of FU issued
system.cpu0.iq.FU_type_0::SimdFloatMultAcc            0      0.00%     83.08% # Type of FU issued
system.cpu0.iq.FU_type_0::SimdFloatSqrt             0      0.00%     83.08% # Type of FU issued
system.cpu0.iq.FU_type_0::MemRead              774964     15.90%     98.98% # Type of FU issued
system.cpu0.iq.FU_type_0::MemWrite              48185      0.99%     99.97% # Type of FU issued
system.cpu0.iq.FU_type_0::FloatMemRead           1513      0.03%    100.00% # Type of FU issued
system.cpu0.iq.FU_type_0::FloatMemWrite            28      0.00%    100.00% # Type of FU issued
system.cpu0.iq.FU_type_0::IprAccess                 0      0.00%    100.00% # Type of FU issued
system.cpu0.iq.FU_type_0::InstPrefetch              0      0.00%    100.00% # Type of FU issued
system.cpu0.iq.FU_type_0::total               4873659                       # Type of FU issued
system.cpu0.iq.rate                          0.159611                       # Inst issue rate
system.cpu0.iq.fu_busy_cnt                      13143                       # FU busy when requested
system.cpu0.iq.fu_busy_rate                  0.002697                       # FU busy rate (busy events/executed inst)
system.cpu0.iq.int_inst_queue_reads          40225713                       # Number of integer instruction queue reads
system.cpu0.iq.int_inst_queue_writes         10958782                       # Number of integer instruction queue writes
system.cpu0.iq.int_inst_queue_wakeup_accesses      4691263                       # Number of integer instruction queue wakeup accesses
system.cpu0.iq.fp_inst_queue_reads              25646                       # Number of floating instruction queue reads
system.cpu0.iq.fp_inst_queue_writes             21976                       # Number of floating instruction queue writes
system.cpu0.iq.fp_inst_queue_wakeup_accesses        11727                       # Number of floating instruction queue wakeup accesses
system.cpu0.iq.vec_inst_queue_reads                 0                       # Number of vector instruction queue reads
system.cpu0.iq.vec_inst_queue_writes                0                       # Number of vector instruction queue writes
system.cpu0.iq.vec_inst_queue_wakeup_accesses            0                       # Number of vector instruction queue wakeup accesses
system.cpu0.iq.int_alu_accesses               4858591                       # Number of integer alu accesses
system.cpu0.iq.fp_alu_accesses                  13185                       # Number of floating point alu accesses
system.cpu0.iq.vec_alu_accesses                     0                       # Number of vector alu accesses
system.cpu0.iew.lsq.thread0.forwLoads            3993                       # Number of loads that had data forwarded from stores
system.cpu0.iew.lsq.thread0.invAddrLoads            0                       # Number of loads ignored due to an invalid address
system.cpu0.iew.lsq.thread0.squashedLoads       803338                       # Number of loads squashed
system.cpu0.iew.lsq.thread0.ignoredResponses          122                       # Number of memory responses ignored because the instruction is squashed
system.cpu0.iew.lsq.thread0.memOrderViolation            4                       # Number of memory ordering violations
system.cpu0.iew.lsq.thread0.squashedStores        44970                       # Number of stores squashed
system.cpu0.iew.lsq.thread0.invAddrSwpfs            0                       # Number of software prefetches ignored due to an invalid address
system.cpu0.iew.lsq.thread0.blockedLoads            0                       # Number of blocked loads due to partial load-store forwarding
system.cpu0.iew.lsq.thread0.rescheduledLoads           19                       # Number of loads that were rescheduled
system.cpu0.iew.lsq.thread0.cacheBlocked         1731                       # Number of times an access to memory failed due to the cache being blocked
system.cpu0.iew.iewIdleCycles                       0                       # Number of cycles IEW is idle
system.cpu0.iew.iewSquashCycles                 61995                       # Number of cycles IEW is squashing
system.cpu0.iew.iewBlockCycles               25437327                       # Number of cycles IEW is blocking
system.cpu0.iew.iewUnblockCycles               281368                       # Number of cycles IEW is unblocking
system.cpu0.iew.iewDispatchedInsts            6792236                       # Number of instructions dispatched to IQ
system.cpu0.iew.iewDispSquashedInsts             3739                       # Number of squashed instructions skipped by dispatch
system.cpu0.iew.iewDispLoadInsts              1303515                       # Number of dispatched load instructions
system.cpu0.iew.iewDispStoreInsts               66501                       # Number of dispatched store instructions
system.cpu0.iew.iewDispNonSpecInsts              1481                       # Number of dispatched non-speculative instructions
system.cpu0.iew.iewIQFullEvents                 17475                       # Number of times the IQ has become full, causing a stall
system.cpu0.iew.iewLSQFullEvents                64288                       # Number of times the LSQ has become full, causing a stall
system.cpu0.iew.memOrderViolationEvents             4                       # Number of memory order violations
system.cpu0.iew.predictedTakenIncorrect         34346                       # Number of branches that were predicted taken incorrectly
system.cpu0.iew.predictedNotTakenIncorrect        33756                       # Number of branches that were predicted not taken incorrectly
system.cpu0.iew.branchMispredicts               68102                       # Number of branch mispredicts detected at execute
system.cpu0.iew.iewExecutedInsts              4796907                       # Number of executed instructions
system.cpu0.iew.iewExecLoadInsts               745246                       # Number of load instructions executed
system.cpu0.iew.iewExecSquashedInsts            76752                       # Number of squashed instructions skipped in execute
system.cpu0.iew.exec_swp                            0                       # number of swp insts executed
system.cpu0.iew.exec_nop                            0                       # number of nop insts executed
system.cpu0.iew.exec_refs                      790089                       # number of memory reference insts executed
system.cpu0.iew.exec_branches                  587240                       # Number of branches executed
system.cpu0.iew.exec_stores                     44843                       # Number of stores executed
system.cpu0.iew.exec_rate                    0.157097                       # Inst execution rate
system.cpu0.iew.wb_sent                       4717143                       # cumulative count of insts sent to commit
system.cpu0.iew.wb_count                      4702990                       # cumulative count of insts written-back
system.cpu0.iew.wb_producers                  3438242                       # num instructions producing a value
system.cpu0.iew.wb_consumers                  5459718                       # num instructions consuming a value
system.cpu0.iew.wb_rate                      0.154021                       # insts written-back per cycle
system.cpu0.iew.wb_fanout                    0.629747                       # average fanout of values written-back
system.cpu0.commit.commitSquashedInsts        4189114                       # The number of squashed insts skipped by commit
system.cpu0.commit.branchMispredicts            61992                       # The number of times a branch was mispredicted
system.cpu0.commit.committed_per_cycle::samples     29898918                       # Number of insts commited each cycle
system.cpu0.commit.committed_per_cycle::mean     0.087084                       # Number of insts commited each cycle
system.cpu0.commit.committed_per_cycle::stdev     0.535351                       # Number of insts commited each cycle
system.cpu0.commit.committed_per_cycle::underflows            0      0.00%      0.00% # Number of insts commited each cycle
system.cpu0.commit.committed_per_cycle::0     28745869     96.14%     96.14% # Number of insts commited each cycle
system.cpu0.commit.committed_per_cycle::1       537147      1.80%     97.94% # Number of insts commited each cycle
system.cpu0.commit.committed_per_cycle::2       127633      0.43%     98.37% # Number of insts commited each cycle
system.cpu0.commit.committed_per_cycle::3       351729      1.18%     99.54% # Number of insts commited each cycle
system.cpu0.commit.committed_per_cycle::4        57552      0.19%     99.74% # Number of insts commited each cycle
system.cpu0.commit.committed_per_cycle::5        31271      0.10%     99.84% # Number of insts commited each cycle
system.cpu0.commit.committed_per_cycle::6         4379      0.01%     99.86% # Number of insts commited each cycle
system.cpu0.commit.committed_per_cycle::7         3423      0.01%     99.87% # Number of insts commited each cycle
system.cpu0.commit.committed_per_cycle::8        39915      0.13%    100.00% # Number of insts commited each cycle
system.cpu0.commit.committed_per_cycle::overflows            0      0.00%    100.00% # Number of insts commited each cycle
system.cpu0.commit.committed_per_cycle::min_value            0                       # Number of insts commited each cycle
system.cpu0.commit.committed_per_cycle::max_value            8                       # Number of insts commited each cycle
system.cpu0.commit.committed_per_cycle::total     29898918                       # Number of insts commited each cycle
system.cpu0.commit.committedInsts             1303119                       # Number of instructions committed
system.cpu0.commit.committedOps               2603718                       # Number of ops (including micro ops) committed
system.cpu0.commit.swp_count                        0                       # Number of s/w prefetches committed
system.cpu0.commit.refs                        521708                       # Number of memory references committed
system.cpu0.commit.loads                       500177                       # Number of loads committed
system.cpu0.commit.membars                          0                       # Number of memory barriers committed
system.cpu0.commit.branches                    477052                       # Number of branches committed
system.cpu0.commit.vec_insts                        0                       # Number of committed Vector instructions.
system.cpu0.commit.fp_insts                      8584                       # Number of committed floating point instructions.
system.cpu0.commit.int_insts                  2594993                       # Number of committed integer instructions.
system.cpu0.commit.function_calls                3800                       # Number of function calls committed.
system.cpu0.commit.op_class_0::No_OpClass         2621      0.10%      0.10% # Class of committed instruction
system.cpu0.commit.op_class_0::IntAlu         2065513     79.33%     79.43% # Class of committed instruction
system.cpu0.commit.op_class_0::IntMult            152      0.01%     79.44% # Class of committed instruction
system.cpu0.commit.op_class_0::IntDiv            6380      0.25%     79.68% # Class of committed instruction
system.cpu0.commit.op_class_0::FloatAdd          7344      0.28%     79.96% # Class of committed instruction
system.cpu0.commit.op_class_0::FloatCmp             0      0.00%     79.96% # Class of committed instruction
system.cpu0.commit.op_class_0::FloatCvt             0      0.00%     79.96% # Class of committed instruction
system.cpu0.commit.op_class_0::FloatMult            0      0.00%     79.96% # Class of committed instruction
system.cpu0.commit.op_class_0::FloatMultAcc            0      0.00%     79.96% # Class of committed instruction
system.cpu0.commit.op_class_0::FloatDiv             0      0.00%     79.96% # Class of committed instruction
system.cpu0.commit.op_class_0::FloatMisc            0      0.00%     79.96% # Class of committed instruction
system.cpu0.commit.op_class_0::FloatSqrt            0      0.00%     79.96% # Class of committed instruction
system.cpu0.commit.op_class_0::SimdAdd              0      0.00%     79.96% # Class of committed instruction
system.cpu0.commit.op_class_0::SimdAddAcc            0      0.00%     79.96% # Class of committed instruction
system.cpu0.commit.op_class_0::SimdAlu              0      0.00%     79.96% # Class of committed instruction
system.cpu0.commit.op_class_0::SimdCmp              0      0.00%     79.96% # Class of committed instruction
system.cpu0.commit.op_class_0::SimdCvt              0      0.00%     79.96% # Class of committed instruction
system.cpu0.commit.op_class_0::SimdMisc             0      0.00%     79.96% # Class of committed instruction
system.cpu0.commit.op_class_0::SimdMult             0      0.00%     79.96% # Class of committed instruction
system.cpu0.commit.op_class_0::SimdMultAcc            0      0.00%     79.96% # Class of committed instruction
system.cpu0.commit.op_class_0::SimdShift            0      0.00%     79.96% # Class of committed instruction
system.cpu0.commit.op_class_0::SimdShiftAcc            0      0.00%     79.96% # Class of committed instruction
system.cpu0.commit.op_class_0::SimdSqrt             0      0.00%     79.96% # Class of committed instruction
system.cpu0.commit.op_class_0::SimdFloatAdd            0      0.00%     79.96% # Class of committed instruction
system.cpu0.commit.op_class_0::SimdFloatAlu            0      0.00%     79.96% # Class of committed instruction
system.cpu0.commit.op_class_0::SimdFloatCmp            0      0.00%     79.96% # Class of committed instruction
system.cpu0.commit.op_class_0::SimdFloatCvt            0      0.00%     79.96% # Class of committed instruction
system.cpu0.commit.op_class_0::SimdFloatDiv            0      0.00%     79.96% # Class of committed instruction
system.cpu0.commit.op_class_0::SimdFloatMisc            0      0.00%     79.96% # Class of committed instruction
system.cpu0.commit.op_class_0::SimdFloatMult            0      0.00%     79.96% # Class of committed instruction
system.cpu0.commit.op_class_0::SimdFloatMultAcc            0      0.00%     79.96% # Class of committed instruction
system.cpu0.commit.op_class_0::SimdFloatSqrt            0      0.00%     79.96% # Class of committed instruction
system.cpu0.commit.op_class_0::MemRead         498937     19.16%     99.13% # Class of committed instruction
system.cpu0.commit.op_class_0::MemWrite         21531      0.83%     99.95% # Class of committed instruction
system.cpu0.commit.op_class_0::FloatMemRead         1240      0.05%    100.00% # Class of committed instruction
system.cpu0.commit.op_class_0::FloatMemWrite            0      0.00%    100.00% # Class of committed instruction
system.cpu0.commit.op_class_0::IprAccess            0      0.00%    100.00% # Class of committed instruction
system.cpu0.commit.op_class_0::InstPrefetch            0      0.00%    100.00% # Class of committed instruction
system.cpu0.commit.op_class_0::total          2603718                       # Class of committed instruction
system.cpu0.commit.bw_lim_events                39915                       # number cycles where commit BW limit reached
system.cpu0.rob.rob_reads                    36651835                       # The number of ROB reads
system.cpu0.rob.rob_writes                   14173673                       # The number of ROB writes
system.cpu0.timesIdled                            358                       # Number of times that the entire CPU went into an idle state and unscheduled itself
system.cpu0.idleCycles                          48983                       # Total number of cycles that the CPU has spent unscheduled due to idling
system.cpu0.committedInsts                    1303119                       # Number of Instructions Simulated
system.cpu0.committedOps                      2603718                       # Number of Ops (including micro ops) Simulated
system.cpu0.cpi                             23.432003                       # CPI: Cycles Per Instruction
system.cpu0.cpi_total                       23.432003                       # CPI: Total CPI of All Threads
system.cpu0.ipc                              0.042677                       # IPC: Instructions Per Cycle
system.cpu0.ipc_total                        0.042677                       # IPC: Total IPC of All Threads
system.cpu0.int_regfile_reads                 4756096                       # number of integer regfile reads
system.cpu0.int_regfile_writes                4075567                       # number of integer regfile writes
system.cpu0.fp_regfile_reads                    20850                       # number of floating regfile reads
system.cpu0.fp_regfile_writes                   10377                       # number of floating regfile writes
system.cpu0.cc_regfile_reads                  3101282                       # number of cc regfile reads
system.cpu0.cc_regfile_writes                 1300692                       # number of cc regfile writes
system.cpu0.misc_regfile_reads                2559511                       # number of misc regfile reads
system.cpu0.dcache.tags.pwrStateResidencyTicks::UNDEFINED  15267344125                       # Cumulative time (in ticks) in various power states
system.cpu0.dcache.tags.replacements           268147                       # number of replacements
system.cpu0.dcache.tags.tagsinuse                1024                       # Cycle average of tags in use
system.cpu0.dcache.tags.total_refs             290323                       # Total number of references to valid blocks.
system.cpu0.dcache.tags.sampled_refs           268147                       # Sample count of references to valid blocks.
system.cpu0.dcache.tags.avg_refs             1.082701                       # Average number of references to valid blocks.
system.cpu0.dcache.tags.warmup_cycle                0                       # Cycle when the warmup percentage was hit.
system.cpu0.dcache.tags.occ_blocks::cpu0.data         1024                       # Average occupied blocks per requestor
system.cpu0.dcache.tags.occ_percent::cpu0.data            1                       # Average percentage of cache occupancy
system.cpu0.dcache.tags.occ_percent::total            1                       # Average percentage of cache occupancy
system.cpu0.dcache.tags.occ_task_id_blocks::1024         1024                       # Occupied blocks per task id
system.cpu0.dcache.tags.age_task_id_blocks_1024::0          208                       # Occupied blocks per task id
system.cpu0.dcache.tags.age_task_id_blocks_1024::1          797                       # Occupied blocks per task id
system.cpu0.dcache.tags.age_task_id_blocks_1024::2           19                       # Occupied blocks per task id
system.cpu0.dcache.tags.occ_task_id_percent::1024            1                       # Percentage of cache occupancy per task id
system.cpu0.dcache.tags.tag_accesses          3302131                       # Number of tag accesses
system.cpu0.dcache.tags.data_accesses         3302131                       # Number of data accesses
system.cpu0.dcache.pwrStateResidencyTicks::UNDEFINED  15267344125                       # Cumulative time (in ticks) in various power states
system.cpu0.dcache.ReadReq_hits::cpu0.data       268368                       # number of ReadReq hits
system.cpu0.dcache.ReadReq_hits::total         268368                       # number of ReadReq hits
system.cpu0.dcache.WriteReq_hits::cpu0.data        20640                       # number of WriteReq hits
system.cpu0.dcache.WriteReq_hits::total         20640                       # number of WriteReq hits
system.cpu0.dcache.demand_hits::cpu0.data       289008                       # number of demand (read+write) hits
system.cpu0.dcache.demand_hits::total          289008                       # number of demand (read+write) hits
system.cpu0.dcache.overall_hits::cpu0.data       289008                       # number of overall hits
system.cpu0.dcache.overall_hits::total         289008                       # number of overall hits
system.cpu0.dcache.ReadReq_misses::cpu0.data       468597                       # number of ReadReq misses
system.cpu0.dcache.ReadReq_misses::total       468597                       # number of ReadReq misses
system.cpu0.dcache.WriteReq_misses::cpu0.data          891                       # number of WriteReq misses
system.cpu0.dcache.WriteReq_misses::total          891                       # number of WriteReq misses
system.cpu0.dcache.demand_misses::cpu0.data       469488                       # number of demand (read+write) misses
system.cpu0.dcache.demand_misses::total        469488                       # number of demand (read+write) misses
system.cpu0.dcache.overall_misses::cpu0.data       469488                       # number of overall misses
system.cpu0.dcache.overall_misses::total       469488                       # number of overall misses
system.cpu0.dcache.ReadReq_miss_latency::cpu0.data  34236464000                       # number of ReadReq miss cycles
system.cpu0.dcache.ReadReq_miss_latency::total  34236464000                       # number of ReadReq miss cycles
system.cpu0.dcache.WriteReq_miss_latency::cpu0.data     30552500                       # number of WriteReq miss cycles
system.cpu0.dcache.WriteReq_miss_latency::total     30552500                       # number of WriteReq miss cycles
system.cpu0.dcache.demand_miss_latency::cpu0.data  34267016500                       # number of demand (read+write) miss cycles
system.cpu0.dcache.demand_miss_latency::total  34267016500                       # number of demand (read+write) miss cycles
system.cpu0.dcache.overall_miss_latency::cpu0.data  34267016500                       # number of overall miss cycles
system.cpu0.dcache.overall_miss_latency::total  34267016500                       # number of overall miss cycles
system.cpu0.dcache.ReadReq_accesses::cpu0.data       736965                       # number of ReadReq accesses(hits+misses)
system.cpu0.dcache.ReadReq_accesses::total       736965                       # number of ReadReq accesses(hits+misses)
system.cpu0.dcache.WriteReq_accesses::cpu0.data        21531                       # number of WriteReq accesses(hits+misses)
system.cpu0.dcache.WriteReq_accesses::total        21531                       # number of WriteReq accesses(hits+misses)
system.cpu0.dcache.demand_accesses::cpu0.data       758496                       # number of demand (read+write) accesses
system.cpu0.dcache.demand_accesses::total       758496                       # number of demand (read+write) accesses
system.cpu0.dcache.overall_accesses::cpu0.data       758496                       # number of overall (read+write) accesses
system.cpu0.dcache.overall_accesses::total       758496                       # number of overall (read+write) accesses
system.cpu0.dcache.ReadReq_miss_rate::cpu0.data     0.635847                       # miss rate for ReadReq accesses
system.cpu0.dcache.ReadReq_miss_rate::total     0.635847                       # miss rate for ReadReq accesses
system.cpu0.dcache.WriteReq_miss_rate::cpu0.data     0.041382                       # miss rate for WriteReq accesses
system.cpu0.dcache.WriteReq_miss_rate::total     0.041382                       # miss rate for WriteReq accesses
system.cpu0.dcache.demand_miss_rate::cpu0.data     0.618972                       # miss rate for demand accesses
system.cpu0.dcache.demand_miss_rate::total     0.618972                       # miss rate for demand accesses
system.cpu0.dcache.overall_miss_rate::cpu0.data     0.618972                       # miss rate for overall accesses
system.cpu0.dcache.overall_miss_rate::total     0.618972                       # miss rate for overall accesses
system.cpu0.dcache.ReadReq_avg_miss_latency::cpu0.data 73061.637185                       # average ReadReq miss latency
system.cpu0.dcache.ReadReq_avg_miss_latency::total 73061.637185                       # average ReadReq miss latency
system.cpu0.dcache.WriteReq_avg_miss_latency::cpu0.data 34290.123457                       # average WriteReq miss latency
system.cpu0.dcache.WriteReq_avg_miss_latency::total 34290.123457                       # average WriteReq miss latency
system.cpu0.dcache.demand_avg_miss_latency::cpu0.data 72988.056138                       # average overall miss latency
system.cpu0.dcache.demand_avg_miss_latency::total 72988.056138                       # average overall miss latency
system.cpu0.dcache.overall_avg_miss_latency::cpu0.data 72988.056138                       # average overall miss latency
[...]
system.l2.ReadSharedReq_hits::cpu0.data         78582                       # number of ReadSharedReq hits
system.l2.ReadSharedReq_hits::total             78582                       # number of ReadSharedReq hits
system.l2.demand_hits::cpu0.data                79264                       # number of demand (read+write) hits
system.l2.demand_hits::total                    79264                       # number of demand (read+write) hits
system.l2.overall_hits::cpu0.data               79264                       # number of overall hits
system.l2.overall_hits::total                   79264                       # number of overall hits
system.l2.ReadExReq_misses::cpu0.data             199                       # number of ReadExReq misses
system.l2.ReadExReq_misses::total                 199                       # number of ReadExReq misses
system.l2.ReadSharedReq_misses::cpu0.data       188683                       # number of ReadSharedReq misses
system.l2.ReadSharedReq_misses::total          188683                       # number of ReadSharedReq misses
system.l2.demand_misses::cpu0.data             188882                       # number of demand (read+write) misses
system.l2.demand_misses::total                 188882                       # number of demand (read+write) misses
system.l2.overall_misses::cpu0.data            188882                       # number of overall misses
system.l2.overall_misses::total                188882                       # number of overall misses
system.l2.ReadExReq_miss_latency::cpu0.data     20259000                       # number of ReadExReq miss cycles
system.l2.ReadExReq_miss_latency::total      20259000                       # number of ReadExReq miss cycles
system.l2.ReadSharedReq_miss_latency::cpu0.data  17931766000                       # number of ReadSharedReq miss cycles
system.l2.ReadSharedReq_miss_latency::total  17931766000                       # number of ReadSharedReq miss cycles
system.l2.demand_miss_latency::cpu0.data  17952025000                       # number of demand (read+write) miss cycles
system.l2.demand_miss_latency::total      17952025000                       # number of demand (read+write) miss cycles
system.l2.overall_miss_latency::cpu0.data  17952025000                       # number of overall miss cycles
system.l2.overall_miss_latency::total     17952025000                       # number of overall miss cycles
system.l2.WritebackDirty_accesses::writebacks         2470                       # number of WritebackDirty accesses(hits+misses)
system.l2.WritebackDirty_accesses::total         2470                       # number of WritebackDirty accesses(hits+misses)
system.l2.ReadExReq_accesses::cpu0.data           881                       # number of ReadExReq accesses(hits+misses)
system.l2.ReadExReq_accesses::total               881                       # number of ReadExReq accesses(hits+misses)
system.l2.ReadSharedReq_accesses::cpu0.data       267265                       # number of ReadSharedReq accesses(hits+misses)
system.l2.ReadSharedReq_accesses::total        267265                       # number of ReadSharedReq accesses(hits+misses)
system.l2.demand_accesses::cpu0.data           268146                       # number of demand (read+write) accesses
system.l2.demand_accesses::total               268146                       # number of demand (read+write) accesses
system.l2.overall_accesses::cpu0.data          268146                       # number of overall (read+write) accesses
system.l2.overall_accesses::total              268146                       # number of overall (read+write) accesses
system.l2.ReadExReq_miss_rate::cpu0.data     0.225880                       # miss rate for ReadExReq accesses
system.l2.ReadExReq_miss_rate::total         0.225880                       # miss rate for ReadExReq accesses
system.l2.ReadSharedReq_miss_rate::cpu0.data     0.705977                       # miss rate for ReadSharedReq accesses
system.l2.ReadSharedReq_miss_rate::total     0.705977                       # miss rate for ReadSharedReq accesses
system.l2.demand_miss_rate::cpu0.data        0.704400                       # miss rate for demand accesses
system.l2.demand_miss_rate::total            0.704400                       # miss rate for demand accesses
system.l2.overall_miss_rate::cpu0.data       0.704400                       # miss rate for overall accesses
system.l2.overall_miss_rate::total           0.704400                       # miss rate for overall accesses
system.l2.ReadExReq_avg_miss_latency::cpu0.data 101804.020101                       # average ReadExReq miss latency
system.l2.ReadExReq_avg_miss_latency::total 101804.020101                       # average ReadExReq miss latency
system.l2.ReadSharedReq_avg_miss_latency::cpu0.data 95036.468574                       # average ReadSharedReq miss latency
system.l2.ReadSharedReq_avg_miss_latency::total 95036.468574                       # average ReadSharedReq miss latency
system.l2.demand_avg_miss_latency::cpu0.data 95043.598649                       # average overall miss latency
system.l2.demand_avg_miss_latency::total 95043.598649                       # average overall miss latency
system.l2.overall_avg_miss_latency::cpu0.data 95043.598649                       # average overall miss latency
system.l2.overall_avg_miss_latency::total 95043.598649                       # average overall miss latency
system.l2.blocked_cycles::no_mshrs                  0                       # number of cycles access was blocked
system.l2.blocked_cycles::no_targets                0                       # number of cycles access was blocked
system.l2.blocked::no_mshrs                         0                       # number of cycles access was blocked
system.l2.blocked::no_targets                       0                       # number of cycles access was blocked
system.l2.avg_blocked_cycles::no_mshrs            nan                       # average number of cycles each access was blocked
system.l2.avg_blocked_cycles::no_targets          nan                       # average number of cycles each access was blocked
system.l2.writebacks::writebacks                  292                       # number of writebacks
system.l2.writebacks::total                       292                       # number of writebacks
system.l2.ReadExReq_mshr_misses::cpu0.data          199                       # number of ReadExReq MSHR misses
system.l2.ReadExReq_mshr_misses::total            199                       # number of ReadExReq MSHR misses
system.l2.ReadSharedReq_mshr_misses::cpu0.data       188683                       # number of ReadSharedReq MSHR misses
system.l2.ReadSharedReq_mshr_misses::total       188683                       # number of ReadSharedReq MSHR misses
system.l2.demand_mshr_misses::cpu0.data        188882                       # number of demand (read+write) MSHR misses
system.l2.demand_mshr_misses::total            188882                       # number of demand (read+write) MSHR misses
system.l2.overall_mshr_misses::cpu0.data       188882                       # number of overall MSHR misses
system.l2.overall_mshr_misses::total           188882                       # number of overall MSHR misses
system.l2.ReadExReq_mshr_miss_latency::cpu0.data     18269000                       # number of ReadExReq MSHR miss cycles
system.l2.ReadExReq_mshr_miss_latency::total     18269000                       # number of ReadExReq MSHR miss cycles
system.l2.ReadSharedReq_mshr_miss_latency::cpu0.data  16044926000                       # number of ReadSharedReq MSHR miss cycles
system.l2.ReadSharedReq_mshr_miss_latency::total  16044926000                       # number of ReadSharedReq MSHR miss cycles
system.l2.demand_mshr_miss_latency::cpu0.data  16063195000                       # number of demand (read+write) MSHR miss cycles
system.l2.demand_mshr_miss_latency::total  16063195000                       # number of demand (read+write) MSHR miss cycles
system.l2.overall_mshr_miss_latency::cpu0.data  16063195000                       # number of overall MSHR miss cycles
system.l2.overall_mshr_miss_latency::total  16063195000                       # number of overall MSHR miss cycles
system.l2.ReadExReq_mshr_miss_rate::cpu0.data     0.225880                       # mshr miss rate for ReadExReq accesses
system.l2.ReadExReq_mshr_miss_rate::total     0.225880                       # mshr miss rate for ReadExReq accesses
system.l2.ReadSharedReq_mshr_miss_rate::cpu0.data     0.705977                       # mshr miss rate for ReadSharedReq accesses
system.l2.ReadSharedReq_mshr_miss_rate::total     0.705977                       # mshr miss rate for ReadSharedReq accesses
system.l2.demand_mshr_miss_rate::cpu0.data     0.704400                       # mshr miss rate for demand accesses
system.l2.demand_mshr_miss_rate::total       0.704400                       # mshr miss rate for demand accesses
system.l2.overall_mshr_miss_rate::cpu0.data     0.704400                       # mshr miss rate for overall accesses
system.l2.overall_mshr_miss_rate::total      0.704400                       # mshr miss rate for overall accesses
system.l2.ReadExReq_avg_mshr_miss_latency::cpu0.data 91804.020101                       # average ReadExReq mshr miss latency
system.l2.ReadExReq_avg_mshr_miss_latency::total 91804.020101                       # average ReadExReq mshr miss latency
system.l2.ReadSharedReq_avg_mshr_miss_latency::cpu0.data 85036.415575                       # average ReadSharedReq mshr miss latency
system.l2.ReadSharedReq_avg_mshr_miss_latency::total 85036.415575                       # average ReadSharedReq mshr miss latency
system.l2.demand_avg_mshr_miss_latency::cpu0.data 85043.545706                       # average overall mshr miss latency
system.l2.demand_avg_mshr_miss_latency::total 85043.545706                       # average overall mshr miss latency
system.l2.overall_avg_mshr_miss_latency::cpu0.data 85043.545706                       # average overall mshr miss latency
system.l2.overall_avg_mshr_miss_latency::total 85043.545706                       # average overall mshr miss latency
system.membus.snoop_filter.tot_requests        377763                       # Total number of requests made to the snoop filter.
system.membus.snoop_filter.hit_single_requests       188883                       # Number of requests hitting in the snoop filter with a single holder of the requested data.
system.membus.snoop_filter.hit_multi_requests            0                       # Number of requests hitting in the snoop filter with multiple (>1) holders of the requested data.
system.membus.snoop_filter.tot_snoops               0                       # Total number of snoops made to the snoop filter.
system.membus.snoop_filter.hit_single_snoops            0                       # Number of snoops hitting in the snoop filter with a single holder of the requested data.
system.membus.snoop_filter.hit_multi_snoops            0                       # Number of snoops hitting in the snoop filter with multiple (>1) holders of the requested data.
system.membus.pwrStateResidencyTicks::UNDEFINED  15267344125                       # Cumulative time (in ticks) in various power states
system.membus.trans_dist::ReadResp             188684                       # Transaction distribution
system.membus.trans_dist::WritebackDirty          292                       # Transaction distribution
system.membus.trans_dist::CleanEvict           188590                       # Transaction distribution
system.membus.trans_dist::ReadExReq               199                       # Transaction distribution
system.membus.trans_dist::ReadExResp              199                       # Transaction distribution
system.membus.trans_dist::ReadSharedReq        188682                       # Transaction distribution
system.membus.pkt_count_system.l2.mem_side::system.mem_ctrls.port       566646                       # Packet count per connected master and slave (bytes)
system.membus.pkt_count_system.l2.mem_side::total       566646                       # Packet count per connected master and slave (bytes)
system.membus.pkt_count::total                 566646                       # Packet count per connected master and slave (bytes)
system.membus.pkt_size_system.l2.mem_side::system.mem_ctrls.port     12107200                       # Cumulative packet size per connected master and slave (bytes)
system.membus.pkt_size_system.l2.mem_side::total     12107200                       # Cumulative packet size per connected master and slave (bytes)
system.membus.pkt_size::total                12107200                       # Cumulative packet size per connected master and slave (bytes)
system.membus.snoops                                0                       # Total snoops (count)
system.membus.snoopTraffic                          0                       # Total snoop traffic (bytes)
system.membus.snoop_fanout::samples            188881                       # Request fanout histogram
system.membus.snoop_fanout::mean                    0                       # Request fanout histogram
system.membus.snoop_fanout::stdev                   0                       # Request fanout histogram
system.membus.snoop_fanout::underflows              0      0.00%      0.00% # Request fanout histogram
system.membus.snoop_fanout::0                  188881    100.00%    100.00% # Request fanout histogram
system.membus.snoop_fanout::1                       0      0.00%    100.00% # Request fanout histogram
system.membus.snoop_fanout::overflows               0      0.00%    100.00% # Request fanout histogram
system.membus.snoop_fanout::min_value               0                       # Request fanout histogram
system.membus.snoop_fanout::max_value               0                       # Request fanout histogram
system.membus.snoop_fanout::total              188881                       # Request fanout histogram
system.membus.reqLayer8.occupancy           444305000                       # Layer occupancy (ticks)
system.membus.reqLayer8.utilization               2.9                       # Layer utilization (%)
system.membus.respLayer1.occupancy         1022683250                       # Layer occupancy (ticks)
system.membus.respLayer1.utilization              6.7                       # Layer utilization (%)
system.tol2bus.snoop_filter.tot_requests       536293                       # Total number of requests made to the snoop filter.
system.tol2bus.snoop_filter.hit_single_requests       268147                       # Number of requests hitting in the snoop filter with a single holder of the requested data.
system.tol2bus.snoop_filter.hit_multi_requests          366                       # Number of requests hitting in the snoop filter with multiple (>1) holders of the requested data.
system.tol2bus.snoop_filter.tot_snoops              1                       # Total number of snoops made to the snoop filter.
system.tol2bus.snoop_filter.hit_single_snoops            1                       # Number of snoops hitting in the snoop filter with a single holder of the requested data.
system.tol2bus.snoop_filter.hit_multi_snoops            0                       # Number of snoops hitting in the snoop filter with multiple (>1) holders of the requested data.
system.tol2bus.pwrStateResidencyTicks::UNDEFINED  15267344125                       # Cumulative time (in ticks) in various power states
system.tol2bus.trans_dist::ReadResp            267266                       # Transaction distribution
system.tol2bus.trans_dist::WritebackDirty         2762                       # Transaction distribution
system.tol2bus.trans_dist::CleanEvict          454268                       # Transaction distribution
system.tol2bus.trans_dist::ReadExReq              881                       # Transaction distribution
system.tol2bus.trans_dist::ReadExResp             881                       # Transaction distribution
system.tol2bus.trans_dist::ReadSharedReq       267265                       # Transaction distribution
system.tol2bus.pkt_count_system.cpu0.dcache.mem_side::system.l2.cpu_side       804440                       # Packet count per connected master and slave (bytes)
system.tol2bus.pkt_count::total                804440                       # Packet count per connected master and slave (bytes)
system.tol2bus.pkt_size_system.cpu0.dcache.mem_side::system.l2.cpu_side     17319488                       # Cumulative packet size per connected master and slave (bytes)
system.tol2bus.pkt_size::total               17319488                       # Cumulative packet size per connected master and slave (bytes)
system.tol2bus.snoops                          188883                       # Total snoops (count)
system.tol2bus.snoopTraffic                     18688                       # Total snoop traffic (bytes)
system.tol2bus.snoop_fanout::samples           457029                       # Request fanout histogram
system.tol2bus.snoop_fanout::mean            0.000803                       # Request fanout histogram
system.tol2bus.snoop_fanout::stdev           0.028326                       # Request fanout histogram
system.tol2bus.snoop_fanout::underflows             0      0.00%      0.00% # Request fanout histogram
system.tol2bus.snoop_fanout::0                 456662     99.92%     99.92% # Request fanout histogram
system.tol2bus.snoop_fanout::1                    367      0.08%    100.00% # Request fanout histogram
system.tol2bus.snoop_fanout::2                      0      0.00%    100.00% # Request fanout histogram
system.tol2bus.snoop_fanout::3                      0      0.00%    100.00% # Request fanout histogram
system.tol2bus.snoop_fanout::4                      0      0.00%    100.00% # Request fanout histogram
system.tol2bus.snoop_fanout::5                      0      0.00%    100.00% # Request fanout histogram
system.tol2bus.snoop_fanout::6                      0      0.00%    100.00% # Request fanout histogram
system.tol2bus.snoop_fanout::7                      0      0.00%    100.00% # Request fanout histogram
system.tol2bus.snoop_fanout::8                      0      0.00%    100.00% # Request fanout histogram
system.tol2bus.snoop_fanout::9                      0      0.00%    100.00% # Request fanout histogram
system.tol2bus.snoop_fanout::10                     0      0.00%    100.00% # Request fanout histogram
system.tol2bus.snoop_fanout::11                     0      0.00%    100.00% # Request fanout histogram
system.tol2bus.snoop_fanout::12                     0      0.00%    100.00% # Request fanout histogram
system.tol2bus.snoop_fanout::13                     0      0.00%    100.00% # Request fanout histogram
system.tol2bus.snoop_fanout::14                     0      0.00%    100.00% # Request fanout histogram
system.tol2bus.snoop_fanout::15                     0      0.00%    100.00% # Request fanout histogram
system.tol2bus.snoop_fanout::16                     0      0.00%    100.00% # Request fanout histogram
system.tol2bus.snoop_fanout::overflows              0      0.00%    100.00% # Request fanout histogram
system.tol2bus.snoop_fanout::min_value              0                       # Request fanout histogram
system.tol2bus.snoop_fanout::max_value              1                       # Request fanout histogram
system.tol2bus.snoop_fanout::total             457029                       # Request fanout histogram
system.tol2bus.reqLayer0.occupancy          270616500                       # Layer occupancy (ticks)
system.tol2bus.reqLayer0.utilization              1.8                       # Layer utilization (%)
system.tol2bus.respLayer1.occupancy         402220500                       # Layer occupancy (ticks)
system.tol2bus.respLayer1.utilization             2.6                       # Layer utilization (%)

---------- End Simulation Statistics   ----------
