
---------- Begin Simulation Statistics ----------
sim_seconds                                  0.015267                       # Number of seconds simulated
sim_ticks                                 15267344125                       # Number of ticks simulated
final_tick                               7358859868250                       # Number of ticks from beginning of simulation (restored from checkpoints and never reset)
sim_freq                                 1000000000000                       # Frequency of simulated ticks
host_inst_rate                               95662777                       # Simulator instruction rate (inst/s)
host_op_rate                                177961183                       # Simulator op (including micro ops) rate (op/s)
host_tick_rate                              248533627                       # Simulator tick rate (ticks/s)
host_mem_usage                                1248940                       # Number of bytes of host memory used
host_seconds                                    61.43                       # Real time elapsed on the host
sim_insts                                  5876533256                       # Number of instructions simulated
sim_ops                                   10932099176                       # Number of ops (including micro ops) simulated
system.voltage_domain.voltage                       1                       # Voltage in Volts
system.clk_domain.clock                          1000                       # Clock period in ticks
system.mem_ctrls.pwrStateResidencyTicks::UNDEFINED  15267344125                       # Cumulative time (in ticks) in various power states
system.mem_ctrls.bytes_read::cpu0.data       12722176                       # Number of bytes read from this memory
system.mem_ctrls.bytes_read::total           12722176                       # Number of bytes read from this memory
system.mem_ctrls.bytes_written::writebacks        22528                       # Number of bytes written to this memory
system.mem_ctrls.bytes_written::total           22528                       # Number of bytes written to this memory
system.mem_ctrls.num_reads::cpu0.data          198784                       # Number of read requests responded to by this memory
system.mem_ctrls.num_reads::total              198784                       # Number of read requests responded to by this memory
system.mem_ctrls.num_writes::writebacks           352                       # Number of write requests responded to by this memory
system.mem_ctrls.num_writes::total                352                       # Number of write requests responded to by this memory
system.mem_ctrls.bw_read::cpu0.data         833293328                       # Total read bandwidth from this memory (bytes/s)
system.mem_ctrls.bw_read::total             833293328                       # Total read bandwidth from this memory (bytes/s)
system.mem_ctrls.bw_write::writebacks         1475568                       # Write bandwidth from this memory (bytes/s)
system.mem_ctrls.bw_write::total              1475568                       # Write bandwidth from this memory (bytes/s)
system.mem_ctrls.bw_total::writebacks         1475568                       # Total bandwidth to/from this memory (bytes/s)
system.mem_ctrls.bw_total::cpu0.data        833293328                       # Total bandwidth to/from this memory (bytes/s)
system.mem_ctrls.bw_total::total            834768896                       # Total bandwidth to/from this memory (bytes/s)
system.mem_ctrls.readReqs                      198785                       # Number of read requests accepted
system.mem_ctrls.writeReqs                        352                       # Number of write requests accepted
system.mem_ctrls.readBursts                    198785                       # Number of DRAM read bursts, including those serviced by the write queue
system.mem_ctrls.writeBursts                      352                       # Number of DRAM write bursts, including those merged in the write queue
system.mem_ctrls.bytesReadDRAM               12719616                       # Total number of bytes read from DRAM
system.mem_ctrls.bytesReadWrQ                    2624                       # Total number of bytes read from write queue
system.mem_ctrls.bytesWritten                   22528                       # Total number of bytes written to DRAM
system.mem_ctrls.bytesReadSys                12722240                       # Total read bytes from the system interface side
system.mem_ctrls.bytesWrittenSys                22528                       # Total written bytes from the system interface side
system.mem_ctrls.servicedByWrQ                     41                       # Number of DRAM read bursts serviced by the write queue
system.mem_ctrls.mergedWrBursts                     6                       # Number of DRAM write bursts merged with an existing one
system.mem_ctrls.neitherReadNorWriteReqs            0                       # Number of requests that are neither read nor write
system.mem_ctrls.perBankRdBursts::0             12332                       # Per bank write bursts
system.mem_ctrls.perBankRdBursts::1             12200                       # Per bank write bursts
system.mem_ctrls.perBankRdBursts::2             12282                       # Per bank write bursts
system.mem_ctrls.perBankRdBursts::3             12464                       # Per bank write bursts
system.mem_ctrls.perBankRdBursts::4             12784                       # Per bank write bursts
system.mem_ctrls.perBankRdBursts::5             12643                       # Per bank write bursts
system.mem_ctrls.perBankRdBursts::6             12881                       # Per bank write bursts
system.mem_ctrls.perBankRdBursts::7             12675                       # Per bank write bursts
system.mem_ctrls.perBankRdBursts::8             12548                       # Per bank write bursts
system.mem_ctrls.perBankRdBursts::9             12555                       # Per bank write bursts
system.mem_ctrls.perBankRdBursts::10            12344                       # Per bank write bursts
system.mem_ctrls.perBankRdBursts::11            12017                       # Per bank write bursts
system.mem_ctrls.perBankRdBursts::12            12381                       # Per bank write bursts
system.mem_ctrls.perBankRdBursts::13            12316                       # Per bank write bursts
system.mem_ctrls.perBankRdBursts::14            12104                       # Per bank write bursts
system.mem_ctrls.perBankRdBursts::15            12218                       # Per bank write bursts
system.mem_ctrls.perBankWrBursts::0                 0                       # Per bank write bursts
system.mem_ctrls.perBankWrBursts::1                 0                       # Per bank write bursts
system.mem_ctrls.perBankWrBursts::2                10                       # Per bank write bursts
system.mem_ctrls.perBankWrBursts::3               143                       # Per bank write bursts
system.mem_ctrls.perBankWrBursts::4                 6                       # Per bank write bursts
system.mem_ctrls.perBankWrBursts::5                 0                       # Per bank write bursts
system.mem_ctrls.perBankWrBursts::6                 0                       # Per bank write bursts
system.mem_ctrls.perBankWrBursts::7                 0                       # Per bank write bursts
system.mem_ctrls.perBankWrBursts::8                 0                       # Per bank write bursts
system.mem_ctrls.perBankWrBursts::9                89                       # Per bank write bursts
system.mem_ctrls.perBankWrBursts::10              104                       # Per bank write bursts
system.mem_ctrls.perBankWrBursts::11                0                       # Per bank write bursts
system.mem_ctrls.perBankWrBursts::12                0                       # Per bank write bursts
system.mem_ctrls.perBankWrBursts::13                0                       # Per bank write bursts
system.mem_ctrls.perBankWrBursts::14                0                       # Per bank write bursts
system.mem_ctrls.perBankWrBursts::15                0                       # Per bank write bursts
system.mem_ctrls.numRdRetry                         0                       # Number of times read queue was full causing retry
system.mem_ctrls.numWrRetry                         0                       # Number of times write queue was full causing retry
system.mem_ctrls.totGap                   15267388500                       # Total gap between requests
system.mem_ctrls.readPktSize::0                     0                       # Read request sizes (log2)
system.mem_ctrls.readPktSize::1                     0                       # Read request sizes (log2)
system.mem_ctrls.readPktSize::2                     0                       # Read request sizes (log2)
system.mem_ctrls.readPktSize::3                     0                       # Read request sizes (log2)
system.mem_ctrls.readPktSize::4                     0                       # Read request sizes (log2)
system.mem_ctrls.readPktSize::5                     0                       # Read request sizes (log2)
system.mem_ctrls.readPktSize::6                198785                       # Read request sizes (log2)
system.mem_ctrls.writePktSize::0                    0                       # Write request sizes (log2)
system.mem_ctrls.writePktSize::1                    0                       # Write request sizes (log2)
system.mem_ctrls.writePktSize::2                    0                       # Write request sizes (log2)
system.mem_ctrls.writePktSize::3                    0                       # Write request sizes (log2)
system.mem_ctrls.writePktSize::4                    0                       # Write request sizes (log2)
system.mem_ctrls.writePktSize::5                    0                       # Write request sizes (log2)
system.mem_ctrls.writePktSize::6                  352                       # Write request sizes (log2)
system.mem_ctrls.rdQLenPdf::0                  149486                       # What read queue length does an incoming req see
system.mem_ctrls.rdQLenPdf::1                   46019                       # What read queue length does an incoming req see
system.mem_ctrls.rdQLenPdf::2                    3218                       # What read queue length does an incoming req see
system.mem_ctrls.rdQLenPdf::3                      21                       # What read queue length does an incoming req see
system.mem_ctrls.rdQLenPdf::4                       0                       # What read queue length does an incoming req see
system.mem_ctrls.rdQLenPdf::5                       0                       # What read queue length does an incoming req see
system.mem_ctrls.rdQLenPdf::6                       0                       # What read queue length does an incoming req see
system.mem_ctrls.rdQLenPdf::7                       0                       # What read queue length does an incoming req see
system.mem_ctrls.rdQLenPdf::8                       0                       # What read queue length does an incoming req see
system.mem_ctrls.rdQLenPdf::9                       0                       # What read queue length does an incoming req see
system.mem_ctrls.rdQLenPdf::10                      0                       # What read queue length does an incoming req see
system.mem_ctrls.rdQLenPdf::11                      0                       # What read queue length does an incoming req see
system.mem_ctrls.rdQLenPdf::12                      0                       # What read queue length does an incoming req see
system.mem_ctrls.rdQLenPdf::13                      0                       # What read queue length does an incoming req see
system.mem_ctrls.rdQLenPdf::14                      0                       # What read queue length does an incoming req see
system.mem_ctrls.rdQLenPdf::15                      0                       # What read queue length does an incoming req see
system.mem_ctrls.rdQLenPdf::16                      0                       # What read queue length does an incoming req see
system.mem_ctrls.rdQLenPdf::17                      0                       # What read queue length does an incoming req see
system.mem_ctrls.rdQLenPdf::18                      0                       # What read queue length does an incoming req see
system.mem_ctrls.rdQLenPdf::19                      0                       # What read queue length does an incoming req see
system.mem_ctrls.rdQLenPdf::20                      0                       # What read queue length does an incoming req see
system.mem_ctrls.rdQLenPdf::21                      0                       # What read queue length does an incoming req see
system.mem_ctrls.rdQLenPdf::22                      0                       # What read queue length does an incoming req see
system.mem_ctrls.rdQLenPdf::23                      0                       # What read queue length does an incoming req see
system.mem_ctrls.rdQLenPdf::24                      0                       # What read queue length does an incoming req see
system.mem_ctrls.rdQLenPdf::25                      0                       # What read queue length does an incoming req see
system.mem_ctrls.rdQLenPdf::26                      0                       # What read queue length does an incoming req see
system.mem_ctrls.rdQLenPdf::27                      0                       # What read queue length does an incoming req see
system.mem_ctrls.rdQLenPdf::28                      0                       # What read queue length does an incoming req see
system.mem_ctrls.rdQLenPdf::29                      0                       # What read queue length does an incoming req see
system.mem_ctrls.rdQLenPdf::30                      0                       # What read queue length does an incoming req see
system.mem_ctrls.rdQLenPdf::31                      0                       # What read queue length does an incoming req see
system.mem_ctrls.wrQLenPdf::0                       0                       # What write queue length does an incoming req see
system.mem_ctrls.wrQLenPdf::1                       0                       # What write queue length does an incoming req see
system.mem_ctrls.wrQLenPdf::2                       0                       # What write queue length does an incoming req see
system.mem_ctrls.wrQLenPdf::3                       0                       # What write queue length does an incoming req see
system.mem_ctrls.wrQLenPdf::4                       0                       # What write queue length does an incoming req see
system.mem_ctrls.wrQLenPdf::5                       0                       # What write queue length does an incoming req see
system.mem_ctrls.wrQLenPdf::6                       0                       # What write queue length does an incoming req see
system.mem_ctrls.wrQLenPdf::7                       0                       # What write queue length does an incoming req see
system.mem_ctrls.wrQLenPdf::8                       0                       # What write queue length does an incoming req see
system.mem_ctrls.wrQLenPdf::9                       0                       # What write queue length does an incoming req see
system.mem_ctrls.wrQLenPdf::10                      0                       # What write queue length does an incoming req see
system.mem_ctrls.wrQLenPdf::11                      0                       # What write queue length does an incoming req see
system.mem_ctrls.wrQLenPdf::12                      0                       # What write queue length does an incoming req see
system.mem_ctrls.wrQLenPdf::13                      0                       # What write queue length does an incoming req see
system.mem_ctrls.wrQLenPdf::14                      0                       # What write queue length does an incoming req see
system.mem_ctrls.wrQLenPdf::15                      0                       # What write queue length does an incoming req see
system.mem_ctrls.wrQLenPdf::16                      0                       # What write queue length does an incoming req see
system.mem_ctrls.wrQLenPdf::17                     22                       # What write queue length does an incoming req see
system.mem_ctrls.wrQLenPdf::18                     22                       # What write queue length does an incoming req see
system.mem_ctrls.wrQLenPdf::19                     22                       # What write queue length does an incoming req see
system.mem_ctrls.wrQLenPdf::20                     22                       # What write queue length does an incoming req see
system.mem_ctrls.wrQLenPdf::21                     21                       # What write queue length does an incoming req see
system.mem_ctrls.wrQLenPdf::22                     21                       # What write queue length does an incoming req see
system.mem_ctrls.wrQLenPdf::23                     21                       # What write queue length does an incoming req see
system.mem_ctrls.wrQLenPdf::24                     21                       # What write queue length does an incoming req see
system.mem_ctrls.wrQLenPdf::25                     21                       # What write queue length does an incoming req see
system.mem_ctrls.wrQLenPdf::26                     21                       # What write queue length does an incoming req see
system.mem_ctrls.wrQLenPdf::27                     22                       # What write queue length does an incoming req see
system.mem_ctrls.wrQLenPdf::28                     22                       # What write queue length does an incoming req see
system.mem_ctrls.wrQLenPdf::29                     22                       # What write queue length does an incoming req see
system.mem_ctrls.wrQLenPdf::30                     22                       # What write queue length does an incoming req see
system.mem_ctrls.wrQLenPdf::31                     22                       # What write queue length does an incoming req see
system.mem_ctrls.wrQLenPdf::32                     22                       # What write queue length does an incoming req see
system.mem_ctrls.wrQLenPdf::33                      0                       # What write queue length does an incoming req see
system.mem_ctrls.wrQLenPdf::34                      0                       # What write queue length does an incoming req see
system.mem_ctrls.wrQLenPdf::35                      0                       # What write queue length does an incoming req see
system.mem_ctrls.wrQLenPdf::36                      0                       # What write queue length does an incoming req see
system.mem_ctrls.wrQLenPdf::37                      0                       # What write queue length does an incoming req see
system.mem_ctrls.wrQLenPdf::38                      0                       # What write queue length does an incoming req see
system.mem_ctrls.wrQLenPdf::39                      0                       # What write queue length does an incoming req see
system.mem_ctrls.wrQLenPdf::40                      0                       # What write queue length does an incoming req see
system.mem_ctrls.wrQLenPdf::41                      0                       # What write queue length does an incoming req see
system.mem_ctrls.wrQLenPdf::42                      0                       # What write queue length does an incoming req see
system.mem_ctrls.wrQLenPdf::43                      0                       # What write queue length does an incoming req see
system.mem_ctrls.wrQLenPdf::44                      0                       # What write queue length does an incoming req see
system.mem_ctrls.wrQLenPdf::45                      0                       # What write queue length does an incoming req see
system.mem_ctrls.wrQLenPdf::46                      0                       # What write queue length does an incoming req see
system.mem_ctrls.wrQLenPdf::47                      0                       # What write queue length does an incoming req see
system.mem_ctrls.wrQLenPdf::48                      0                       # What write queue length does an incoming req see
system.mem_ctrls.wrQLenPdf::49                      0                       # What write queue length does an incoming req see
system.mem_ctrls.wrQLenPdf::50                      0                       # What write queue length does an incoming req see
system.mem_ctrls.wrQLenPdf::51                      0                       # What write queue length does an incoming req see
system.mem_ctrls.wrQLenPdf::52                      0                       # What write queue length does an incoming req see
system.mem_ctrls.wrQLenPdf::53                      0                       # What write queue length does an incoming req see
system.mem_ctrls.wrQLenPdf::54                      0                       # What write queue length does an incoming req see
system.mem_ctrls.wrQLenPdf::55                      0                       # What write queue length does an incoming req see
system.mem_ctrls.wrQLenPdf::56                      0                       # What write queue length does an incoming req see
system.mem_ctrls.wrQLenPdf::57                      0                       # What write queue length does an incoming req see
system.mem_ctrls.wrQLenPdf::58                      0                       # What write queue length does an incoming req see
system.mem_ctrls.wrQLenPdf::59                      0                       # What write queue length does an incoming req see
system.mem_ctrls.wrQLenPdf::60                      0                       # What write queue length does an incoming req see
system.mem_ctrls.wrQLenPdf::61                      0                       # What write queue length does an incoming req see
system.mem_ctrls.wrQLenPdf::62                      0                       # What write queue length does an incoming req see
system.mem_ctrls.wrQLenPdf::63                      0                       # What write queue length does an incoming req see
system.mem_ctrls.bytesPerActivate::samples        96973                       # Bytes accessed per row activation
system.mem_ctrls.bytesPerActivate::mean    131.392944                       # Bytes accessed per row activation
system.mem_ctrls.bytesPerActivate::gmean   112.796690                       # Bytes accessed per row activation
system.mem_ctrls.bytesPerActivate::stdev    78.418274                       # Bytes accessed per row activation
system.mem_ctrls.bytesPerActivate::0-127        40079     41.33%     41.33% # Bytes accessed per row activation
system.mem_ctrls.bytesPerActivate::128-255        45111     46.52%     87.85% # Bytes accessed per row activation
system.mem_ctrls.bytesPerActivate::256-383        10128     10.44%     98.29% # Bytes accessed per row activation
system.mem_ctrls.bytesPerActivate::384-511         1459      1.50%     99.80% # Bytes accessed per row activation
system.mem_ctrls.bytesPerActivate::512-639          162      0.17%     99.96% # Bytes accessed per row activation
system.mem_ctrls.bytesPerActivate::640-767           18      0.02%     99.98% # Bytes accessed per row activation
system.mem_ctrls.bytesPerActivate::768-895            5      0.01%     99.99% # Bytes accessed per row activation
system.mem_ctrls.bytesPerActivate::896-1023            2      0.00%     99.99% # Bytes accessed per row activation
system.mem_ctrls.bytesPerActivate::1024-1151            9      0.01%    100.00% # Bytes accessed per row activation
system.mem_ctrls.bytesPerActivate::total        96973                       # Bytes accessed per row activation
system.mem_ctrls.rdPerTurnAround::samples           22                       # Reads before turning the bus around for writes
system.mem_ctrls.rdPerTurnAround::mean    9185.863636                       # Reads before turning the bus around for writes
system.mem_ctrls.rdPerTurnAround::gmean   8937.299099                       # Reads before turning the bus around for writes
system.mem_ctrls.rdPerTurnAround::stdev   2193.588847                       # Reads before turning the bus around for writes
system.mem_ctrls.rdPerTurnAround::5632-6143            1      4.55%      4.55% # Reads before turning the bus around for writes
system.mem_ctrls.rdPerTurnAround::6144-6655            2      9.09%     13.64% # Reads before turning the bus around for writes
system.mem_ctrls.rdPerTurnAround::6656-7167            1      4.55%     18.18% # Reads before turning the bus around for writes
system.mem_ctrls.rdPerTurnAround::7168-7679            3     13.64%     31.82% # Reads before turning the bus around for writes
system.mem_ctrls.rdPerTurnAround::7680-8191            2      9.09%     40.91% # Reads before turning the bus around for writes
system.mem_ctrls.rdPerTurnAround::8192-8703            2      9.09%     50.00% # Reads before turning the bus around for writes
system.mem_ctrls.rdPerTurnAround::9216-9727            1      4.55%     54.55% # Reads before turning the bus around for writes
system.mem_ctrls.rdPerTurnAround::9728-10239            4     18.18%     72.73% # Reads before turning the bus around for writes
system.mem_ctrls.rdPerTurnAround::10240-10751            1      4.55%     77.27% # Reads before turning the bus around for writes
system.mem_ctrls.rdPerTurnAround::10752-11263            1      4.55%     81.82% # Reads before turning the bus around for writes
system.mem_ctrls.rdPerTurnAround::11264-11775            1      4.55%     86.36% # Reads before turning the bus around for writes
system.mem_ctrls.rdPerTurnAround::12288-12799            1      4.55%     90.91% # Reads before turning the bus around for writes
system.mem_ctrls.rdPerTurnAround::12800-13311            2      9.09%    100.00% # Reads before turning the bus around for writes
system.mem_ctrls.rdPerTurnAround::total            22                       # Reads before turning the bus around for writes
system.mem_ctrls.wrPerTurnAround::samples           22                       # Writes before turning the bus around for reads
system.mem_ctrls.wrPerTurnAround::mean             16                       # Writes before turning the bus around for reads
system.mem_ctrls.wrPerTurnAround::gmean     16.000000                       # Writes before turning the bus around for reads
system.mem_ctrls.wrPerTurnAround::16               22    100.00%    100.00% # Writes before turning the bus around for reads
system.mem_ctrls.wrPerTurnAround::total            22                       # Writes before turning the bus around for reads
system.mem_ctrls.totQLat                   4809791750                       # Total ticks spent queuing
system.mem_ctrls.totMemAccLat              8536241750                       # Total ticks spent from burst creation until serviced by the DRAM
system.mem_ctrls.totBusLat                  993720000                       # Total ticks spent in databus transfers
system.mem_ctrls.avgQLat                     24200.94                       # Average queueing delay per DRAM burst
system.mem_ctrls.avgBusLat                    5000.00                       # Average bus latency per DRAM burst
system.mem_ctrls.avgMemAccLat                42950.94                       # Average memory access latency per DRAM burst
system.mem_ctrls.avgRdBW                       833.13                       # Average DRAM read bandwidth in MiByte/s
system.mem_ctrls.avgWrBW                         1.48                       # Average achieved write bandwidth in MiByte/s
system.mem_ctrls.avgRdBWSys                    833.30                       # Average system read bandwidth in MiByte/s
system.mem_ctrls.avgWrBWSys                      1.48                       # Average system write bandwidth in MiByte/s
system.mem_ctrls.peakBW                      12800.00                       # Theoretical peak bandwidth in MiByte/s
system.mem_ctrls.busUtil                         6.52                       # Data bus utilization in percentage
system.mem_ctrls.busUtilRead                     6.51                       # Data bus utilization in percentage for reads
system.mem_ctrls.busUtilWrite                    0.01                       # Data bus utilization in percentage for writes
system.mem_ctrls.avgRdQLen                       1.33                       # Average read queue length when enqueuing
system.mem_ctrls.avgWrQLen                      25.82                       # Average write queue length when enqueuing
system.mem_ctrls.readRowHits                   101815                       # Number of row buffer hits during reads
system.mem_ctrls.writeRowHits                     303                       # Number of row buffer hits during writes
system.mem_ctrls.readRowHitRate                 51.23                       # Row buffer hit rate for reads
system.mem_ctrls.writeRowHitRate                87.57                       # Row buffer hit rate for writes
system.mem_ctrls.avgGap                      76667.76                       # Average gap between requests
system.mem_ctrls.pageHitRate                    51.29                       # Row buffer hit rate, read and write combined
system.mem_ctrls_0.actEnergy                348189240                       # Energy for activate commands per rank (pJ)
system.mem_ctrls_0.preEnergy                185047995                       # Energy for precharge commands per rank (pJ)
system.mem_ctrls_0.readEnergy               715863540                       # Energy for read commands per rank (pJ)
system.mem_ctrls_0.writeEnergy                 829980                       # Energy for write commands per rank (pJ)
system.mem_ctrls_0.refreshEnergy         1204694400.000000                       # Energy for refresh commands per rank (pJ)
system.mem_ctrls_0.actBackEnergy           1652283510                       # Energy for active background per rank (pJ)
system.mem_ctrls_0.preBackEnergy             24432480                       # Energy for precharge background per rank (pJ)
system.mem_ctrls_0.actPowerDownEnergy      5165047590                       # Energy for active power-down per rank (pJ)
system.mem_ctrls_0.prePowerDownEnergy        97317120                       # Energy for precharge power-down per rank (pJ)
system.mem_ctrls_0.selfRefreshEnergy                0                       # Energy for self refresh per rank (pJ)
system.mem_ctrls_0.totalEnergy             9393705855                       # Total energy per rank (pJ)
system.mem_ctrls_0.averagePower            615.280941                       # Core power per rank (mW)
system.mem_ctrls_0.totalIdleTime          11579029875                       # Total Idle time Per DRAM Rank
system.mem_ctrls_0.memoryStateTime::IDLE      9396000                       # Time in different power states
system.mem_ctrls_0.memoryStateTime::REF     509600000                       # Time in different power states
system.mem_ctrls_0.memoryStateTime::SREF            0                       # Time in different power states
system.mem_ctrls_0.memoryStateTime::PRE_PDN    253105250                       # Time in different power states
system.mem_ctrls_0.memoryStateTime::ACT    3169244250                       # Time in different power states
system.mem_ctrls_0.memoryStateTime::ACT_PDN  11325998625                       # Time in different power states
system.mem_ctrls_1.actEnergy                344226540                       # Energy for activate commands per rank (pJ)
system.mem_ctrls_1.preEnergy                182960745                       # Energy for precharge commands per rank (pJ)
system.mem_ctrls_1.readEnergy               703161480                       # Energy for read commands per rank (pJ)
system.mem_ctrls_1.writeEnergy                1007460                       # Energy for write commands per rank (pJ)
system.mem_ctrls_1.refreshEnergy         1205309040.000000                       # Energy for refresh commands per rank (pJ)
system.mem_ctrls_1.actBackEnergy           1632237750                       # Energy for active background per rank (pJ)
system.mem_ctrls_1.preBackEnergy             24544320                       # Energy for precharge background per rank (pJ)
system.mem_ctrls_1.actPowerDownEnergy      5190197130                       # Energy for active power-down per rank (pJ)
system.mem_ctrls_1.prePowerDownEnergy        92907360                       # Energy for precharge power-down per rank (pJ)
system.mem_ctrls_1.selfRefreshEnergy                0                       # Energy for self refresh per rank (pJ)
system.mem_ctrls_1.totalEnergy             9376551825                       # Total energy per rank (pJ)
system.mem_ctrls_1.averagePower            614.157364                       # Core power per rank (mW)
system.mem_ctrls_1.totalIdleTime          11624444375                       # Total Idle time Per DRAM Rank
system.mem_ctrls_1.memoryStateTime::IDLE      9678000                       # Time in different power states
system.mem_ctrls_1.memoryStateTime::REF     509860000                       # Time in different power states
system.mem_ctrls_1.memoryStateTime::SREF            0                       # Time in different power states
system.mem_ctrls_1.memoryStateTime::PRE_PDN    241769250                       # Time in different power states
system.mem_ctrls_1.memoryStateTime::ACT    3123361750                       # Time in different power states
system.mem_ctrls_1.memoryStateTime::ACT_PDN  11382675125                       # Time in different power states
system.pwrStateResidencyTicks::UNDEFINED  15267344125                       # Cumulative time (in ticks) in various power states
system.cpu0.branchPred.lookups                1426805                       # Number of BP lookups
system.cpu0.branchPred.condPredicted          1426805                       # Number of conditional branches predicted
system.cpu0.branchPred.condIncorrect            55807                       # Number of conditional branches incorrect
system.cpu0.branchPred.BTBLookups             1125774                       # Number of BTB lookups
system.cpu0.branchPred.BTBHits                      0                       # Number of BTB hits
system.cpu0.branchPred.BTBCorrect                   0                       # Number of correct BTB predictions (this stat may not work properly.
system.cpu0.branchPred.BTBHitPct             0.000000                       # BTB Hit Percentage
system.cpu0.branchPred.usedRAS                  36109                       # Number of times the RAS was used to get a target.
system.cpu0.branchPred.RASInCorrect              4811                       # Number of incorrect RAS predictions.
system.cpu0.branchPred.indirectLookups        1125774                       # Number of indirect predictor lookups.
system.cpu0.branchPred.indirectHits            614669                       # Number of indirect target hits.
system.cpu0.branchPred.indirectMisses          511105                       # Number of indirect misses.
system.cpu0.branchPredindirectMispredicted        18163                       # Number of mispredicted indirect branches.
system.cpu_voltage_domain.voltage                   1                       # Voltage in Volts
system.cpu_clk_domain.clock                       500                       # Clock period in ticks
system.cpu0.dtb.walker.pwrStateResidencyTicks::UNDEFINED  15267344125                       # Cumulative time (in ticks) in various power states
system.cpu0.dtb.rdAccesses                     652279                       # TLB accesses on read requests
system.cpu0.dtb.wrAccesses                      37337                       # TLB accesses on write requests
system.cpu0.dtb.rdMisses                       135991                       # TLB misses on read requests
system.cpu0.dtb.wrMisses                          636                       # TLB misses on write requests
system.cpu0.apic_clk_domain.clock                8000                       # Clock period in ticks
system.cpu0.interrupts.pwrStateResidencyTicks::UNDEFINED  15267344125                       # Cumulative time (in ticks) in various power states
system.cpu0.itb.walker.pwrStateResidencyTicks::UNDEFINED  15267344125                       # Cumulative time (in ticks) in various power states
system.cpu0.itb.rdAccesses                          0                       # TLB accesses on read requests
system.cpu0.itb.wrAccesses                    1192771                       # TLB accesses on write requests
system.cpu0.itb.rdMisses                            0                       # TLB misses on read requests
system.cpu0.itb.wrMisses                         2101                       # TLB misses on write requests
system.cpu0.workload.numSyscalls                    0                       # Number of system calls
system.cpu0.pwrStateResidencyTicks::ON    15267344125                       # Cumulative time (in ticks) in various power states
system.cpu0.numCycles                        30534688                       # number of cpu cycles simulated
system.cpu0.numWorkItemsStarted                     0                       # number of work items this cpu started
system.cpu0.numWorkItemsCompleted                   0                       # number of work items this cpu completed
system.cpu0.fetch.icacheStallCycles           1219170                       # Number of cycles fetch is stalled on an Icache miss
system.cpu0.fetch.Insts                       4107930                       # Number of instructions fetch has processed
system.cpu0.fetch.Branches                    1426805                       # Number of branches that fetch encountered
system.cpu0.fetch.predictedBranches            650778                       # Number of branches that fetch has predicted taken
system.cpu0.fetch.Cycles                     29217125                       # Number of cycles fetch has run and was not squashing or blocked
system.cpu0.fetch.SquashCycles                 113050                       # Number of cycles fetch has spent squashing
system.cpu0.fetch.TlbCycles                       929                       # Number of cycles fetch has spent waiting for tlb
system.cpu0.fetch.MiscStallCycles                 559                       # Number of cycles fetch has spent waiting on interrupts, or bad addresses, or out of MSHRs
system.cpu0.fetch.PendingTrapStallCycles        18204                       # Number of stall cycles due to pending traps
system.cpu0.fetch.CacheLines                  1190670                       # Number of cache lines fetched
system.cpu0.fetch.IcacheSquashes                 6053                       # Number of outstanding Icache misses that were squashed
system.cpu0.fetch.ItlbSquashes                      3                       # Number of outstanding ITLB misses that were squashed
system.cpu0.fetch.rateDist::samples          30512512                       # Number of instructions fetched each cycle (Total)
system.cpu0.fetch.rateDist::mean             0.270543                       # Number of instructions fetched each cycle (Total)
system.cpu0.fetch.rateDist::stdev            1.311094                       # Number of instructions fetched each cycle (Total)
system.cpu0.fetch.rateDist::underflows              0      0.00%      0.00% # Number of instructions fetched each cycle (Total)
system.cpu0.fetch.rateDist::0                28900052     94.72%     94.72% # Number of instructions fetched each cycle (Total)
system.cpu0.fetch.rateDist::1                   19828      0.06%     94.78% # Number of instructions fetched each cycle (Total)
system.cpu0.fetch.rateDist::2                  602021      1.97%     96.75% # Number of instructions fetched each cycle (Total)
system.cpu0.fetch.rateDist::3                   20121      0.07%     96.82% # Number of instructions fetched each cycle (Total)
system.cpu0.fetch.rateDist::4                  115291      0.38%     97.20% # Number of instructions fetched each cycle (Total)
system.cpu0.fetch.rateDist::5                   54720      0.18%     97.38% # Number of instructions fetched each cycle (Total)
system.cpu0.fetch.rateDist::6                   74667      0.24%     97.62% # Number of instructions fetched each cycle (Total)
system.cpu0.fetch.rateDist::7                   18556      0.06%     97.68% # Number of instructions fetched each cycle (Total)
system.cpu0.fetch.rateDist::8                  707256      2.32%    100.00% # Number of instructions fetched each cycle (Total)
system.cpu0.fetch.rateDist::overflows               0      0.00%    100.00% # Number of instructions fetched each cycle (Total)
system.cpu0.fetch.rateDist::min_value               0                       # Number of instructions fetched each cycle (Total)
system.cpu0.fetch.rateDist::max_value               8                       # Number of instructions fetched each cycle (Total)
system.cpu0.fetch.rateDist::total            30512512                       # Number of instructions fetched each cycle (Total)
system.cpu0.fetch.branchRate                 0.046727                       # Number of branch fetches per cycle
system.cpu0.fetch.rate                       0.134533                       # Number of inst fetches per cycle
system.cpu0.decode.IdleCycles                  583034                       # Number of cycles decode is idle
system.cpu0.decode.BlockedCycles             28833204                       # Number of cycles decode is blocked
system.cpu0.decode.RunCycles                   756397                       # Number of cycles decode is running
system.cpu0.decode.UnblockCycles               283352                       # Number of cycles decode is unblocking
system.cpu0.decode.SquashCycles                 56525                       # Number of cycles decode is squashing
system.cpu0.decode.DecodedInsts               6747016                       # Number of instructions handled by decode
system.cpu0.rename.SquashCycles                 56525                       # Number of cycles rename is squashing
system.cpu0.rename.IdleCycles                  664139                       # Number of cycles rename is idle
system.cpu0.rename.BlockCycles               27680602                       # Number of cycles rename is blocking
system.cpu0.rename.serializeStallCycles         14133                       # count of cycles rename stalled for serializing inst
system.cpu0.rename.RunCycles                   884955                       # Number of cycles rename is running
system.cpu0.rename.UnblockCycles              1212158                       # Number of cycles rename is unblocking
system.cpu0.rename.RenamedInsts               6479221                       # Number of instructions processed by rename
system.cpu0.rename.ROBFullEvents                58660                       # Number of times rename has blocked due to ROB full
system.cpu0.rename.IQFullEvents                954481                       # Number of times rename has blocked due to IQ full
system.cpu0.rename.LQFullEvents                209653                       # Number of times rename has blocked due to LQ full
system.cpu0.rename.SQFullEvents                   524                       # Number of times rename has blocked due to SQ full
system.cpu0.rename.RenamedOperands            7746597                       # Number of destination operands rename has renamed
system.cpu0.rename.RenameLookups             18097055                       # Number of register rename lookups that rename has made
system.cpu0.rename.int_rename_lookups         8449221                       # Number of integer rename lookups
system.cpu0.rename.fp_rename_lookups            27640                       # Number of floating rename lookups
system.cpu0.rename.CommittedMaps              2707829                       # Number of HB maps that are committed
system.cpu0.rename.UndoneMaps                 5038771                       # Number of HB maps that are undone due to squashing
system.cpu0.rename.serializingInsts               226                       # count of serializing insts renamed
system.cpu0.rename.tempSerializingInsts           285                       # count of temporary serializing insts renamed
system.cpu0.rename.skidInsts                  1814792                       # count of insts added to the skid buffer
system.cpu0.memDep0.insertedLoads             1181442                       # Number of loads inserted to the mem dependence unit.
system.cpu0.memDep0.insertedStores              54469                       # Number of stores inserted to the mem dependence unit.
system.cpu0.memDep0.conflictingLoads             2698                       # Number of conflicting loads.
system.cpu0.memDep0.conflictingStores            3035                       # Number of conflicting stores.
system.cpu0.iq.iqInstsAdded                   6163734                       # Number of instructions added to the IQ (excludes non-spec)
system.cpu0.iq.iqNonSpecInstsAdded               3310                       # Number of non-speculative instructions added to the IQ
system.cpu0.iq.iqInstsIssued                  4360837                       # Number of instructions issued
system.cpu0.iq.iqSquashedInstsIssued             4642                       # Number of squashed instructions issued
system.cpu0.iq.iqSquashedInstsExamined        3909537                       # Number of squashed instructions iterated over during squash; mainly for profiling
system.cpu0.iq.iqSquashedOperandsExamined      8317484                       # Number of squashed operands that are examined and possibly removed from graph
system.cpu0.iq.iqSquashedNonSpecRemoved          3310                       # Number of squashed non-spec instructions that were removed
system.cpu0.iq.issued_per_cycle::samples     30512512                       # Number of insts issued each cycle
system.cpu0.iq.issued_per_cycle::mean        0.142920                       # Number of insts issued each cycle
system.cpu0.iq.issued_per_cycle::stdev       0.685983                       # Number of insts issued each cycle
system.cpu0.iq.issued_per_cycle::underflows            0      0.00%      0.00% # Number of insts issued each cycle
system.cpu0.iq.issued_per_cycle::0           28693484     94.04%     94.04% # Number of insts issued each cycle
system.cpu0.iq.issued_per_cycle::1             738922      2.42%     96.46% # Number of insts issued each cycle
system.cpu0.iq.issued_per_cycle::2             382629      1.25%     97.71% # Number of insts issued each cycle
system.cpu0.iq.issued_per_cycle::3             255946      0.84%     98.55% # Number of insts issued each cycle
system.cpu0.iq.issued_per_cycle::4             270661      0.89%     99.44% # Number of insts issued each cycle
system.cpu0.iq.issued_per_cycle::5              71325      0.23%     99.67% # Number of insts issued each cycle
system.cpu0.iq.issued_per_cycle::6              63110      0.21%     99.88% # Number of insts issued each cycle
system.cpu0.iq.issued_per_cycle::7              20590      0.07%     99.95% # Number of insts issued each cycle
system.cpu0.iq.issued_per_cycle::8              15845      0.05%    100.00% # Number of insts issued each cycle
system.cpu0.iq.issued_per_cycle::overflows            0      0.00%    100.00% # Number of insts issued each cycle
system.cpu0.iq.issued_per_cycle::min_value            0                       # Number of insts issued each cycle
system.cpu0.iq.issued_per_cycle::max_value            8                       # Number of insts issued each cycle
system.cpu0.iq.issued_per_cycle::total       30512512                       # Number of insts issued each cycle
system.cpu0.iq.fu_full::No_OpClass                  0      0.00%      0.00% # attempts to use FU when none available
system.cpu0.iq.fu_full::IntAlu                   8394     66.49%     66.49% # attempts to use FU when none available
system.cpu0.iq.fu_full::IntMult                     0      0.00%     66.49% # attempts to use FU when none available
system.cpu0.iq.fu_full::IntDiv                      0      0.00%     66.49% # attempts to use FU when none available
system.cpu0.iq.fu_full::FloatAdd                  835      6.61%     73.11% # attempts to use FU when none available
system.cpu0.iq.fu_full::FloatCmp                    0      0.00%     73.11% # attempts to use FU when none available
system.cpu0.iq.fu_full::FloatCvt                    0      0.00%     73.11% # attempts to use FU when none available
system.cpu0.iq.fu_full::FloatMult                   0      0.00%     73.11% # attempts to use FU when none available
system.cpu0.iq.fu_full::FloatMultAcc                0      0.00%     73.11% # attempts to use FU when none available
system.cpu0.iq.fu_full::FloatDiv                    0      0.00%     73.11% # attempts to use FU when none available
system.cpu0.iq.fu_full::FloatMisc                   0      0.00%     73.11% # attempts to use FU when none available
system.cpu0.iq.fu_full::FloatSqrt                   0      0.00%     73.11% # attempts to use FU when none available
system.cpu0.iq.fu_full::SimdAdd                     0      0.00%     73.11% # attempts to use FU when none available
system.cpu0.iq.fu_full::SimdAddAcc                  0      0.00%     73.11% # attempts to use FU when none available
system.cpu0.iq.fu_full::SimdAlu                     0      0.00%     73.11% # attempts to use FU when none available
system.cpu0.iq.fu_full::SimdCmp                     0      0.00%     73.11% # attempts to use FU when none available
system.cpu0.iq.fu_full::SimdCvt                     0      0.00%     73.11% # attempts to use FU when none available
system.cpu0.iq.fu_full::SimdMisc                    0      0.00%     73.11% # attempts to use FU when none available
system.cpu0.iq.fu_full::SimdMult                    0      0.00%     73.11% # attempts to use FU when none available
system.cpu0.iq.fu_full::SimdMultAcc                 0      0.00%     73.11% # attempts to use FU when none available
system.cpu0.iq.fu_full::SimdShift                   0      0.00%     73.11% # attempts to use FU when none available
system.cpu0.iq.fu_full::SimdShiftAcc                0      0.00%     73.11% # attempts to use FU when none available
system.cpu0.iq.fu_full::SimdSqrt                    0      0.00%     73.11% # attempts to use FU when none available
system.cpu0.iq.fu_full::SimdFloatAdd                0      0.00%     73.11% # attempts to use FU when none available
system.cpu0.iq.fu_full::SimdFloatAlu                0      0.00%     73.11% # attempts to use FU when none available
system.cpu0.iq.fu_full::SimdFloatCmp                0      0.00%     73.11% # attempts to use FU when none available
system.cpu0.iq.fu_full::SimdFloatCvt                0      0.00%     73.11% # attempts to use FU when none available
system.cpu0.iq.fu_full::SimdFloatDiv                0      0.00%     73.11% # attempts to use FU when none available
system.cpu0.iq.fu_full::SimdFloatMisc               0      0.00%     73.11% # attempts to use FU when none available
system.cpu0.iq.fu_full::SimdFloatMult               0      0.00%     73.11% # attempts to use FU when none available
system.cpu0.iq.fu_full::SimdFloatMultAcc            0      0.00%     73.11% # attempts to use FU when none available
system.cpu0.iq.fu_full::SimdFloatSqrt               0      0.00%     73.11% # attempts to use FU when none available
system.cpu0.iq.fu_full::MemRead                  3101     24.56%     97.67% # attempts to use FU when none available
system.cpu0.iq.fu_full::MemWrite                  208      1.65%     99.32% # attempts to use FU when none available
system.cpu0.iq.fu_full::FloatMemRead               86      0.68%    100.00% # attempts to use FU when none available
system.cpu0.iq.fu_full::FloatMemWrite               0      0.00%    100.00% # attempts to use FU when none available
system.cpu0.iq.fu_full::IprAccess                   0      0.00%    100.00% # attempts to use FU when none available
system.cpu0.iq.fu_full::InstPrefetch                0      0.00%    100.00% # attempts to use FU when none available
system.cpu0.iq.FU_type_0::No_OpClass            12308      0.28%      0.28% # Type of FU issued
system.cpu0.iq.FU_type_0::IntAlu              3608763     82.75%     83.04% # Type of FU issued
system.cpu0.iq.FU_type_0::IntMult                 672      0.02%     83.05% # Type of FU issued
system.cpu0.iq.FU_type_0::IntDiv                 7485      0.17%     83.22% # Type of FU issued
system.cpu0.iq.FU_type_0::FloatAdd              10681      0.24%     83.47% # Type of FU issued
system.cpu0.iq.FU_type_0::FloatCmp                  0      0.00%     83.47% # Type of FU issued
system.cpu0.iq.FU_type_0::FloatCvt                  0      0.00%     83.47% # Type of FU issued
system.cpu0.iq.FU_type_0::FloatMult                 0      0.00%     83.47% # Type of FU issued
system.cpu0.iq.FU_type_0::FloatMultAcc              0      0.00%     83.47% # Type of FU issued
system.cpu0.iq.FU_type_0::FloatDiv                  0      0.00%     83.47% # Type of FU issued
system.cpu0.iq.FU_type_0::FloatMisc                 0      0.00%     83.47% # Type of FU issued
system.cpu0.iq.FU_type_0::FloatSqrt                 0      0.00%     83.47% # Type of FU issued
system.cpu0.iq.FU_type_0::SimdAdd                   0      0.00%     83.47% # Type of FU issued
system.cpu0.iq.FU_type_0::SimdAddAcc                0      0.00%     83.47% # Type of FU issued
system.cpu0.iq.FU_type_0::SimdAlu                   0      0.00%     83.47% # Type of FU issued
system.cpu0.iq.FU_type_0::SimdCmp                   0      0.00%     83.47% # Type of FU issued
system.cpu0.iq.FU_type_0::SimdCvt                   0      0.00%     83.47% # Type of FU issued
system.cpu0.iq.FU_type_0::SimdMisc                  0      0.00%     83.47% # Type of FU issued
system.cpu0.iq.FU_type_0::SimdMult                  0      0.00%     83.47% # Type of FU issued
system.cpu0.iq.FU_type_0::SimdMultAcc               0      0.00%     83.47% # Type of FU issued
system.cpu0.iq.FU_type_0::SimdShift                 0      0.00%     83.47% # Type of FU issued
system.cpu0.iq.FU_type_0::SimdShiftAcc              0      0.00%     83.47% # Type of FU issued
system.cpu0.iq.FU_type_0::SimdSqrt                  0      0.00%     83.47% # Type of FU issued
system.cpu0.iq.FU_type_0::SimdFloatAdd              0      0.00%     83.47% # Type of FU issued
system.cpu0.iq.FU_type_0::SimdFloatAlu              0      0.00%     83.47% # Type of FU issued
system.cpu0.iq.FU_type_0::SimdFloatCmp              0      0.00%     83.47% # Type of FU issued
system.cpu0.iq.FU_type_0::SimdFloatCvt              0      0.00%     83.47% # Type of FU issued
system.cpu0.iq.FU_type_0::SimdFloatDiv              0      0.00%     83.47% # Type of FU issued
system.cpu0.iq.FU_type_0::SimdFloatMisc             0      0.00%     83.47% # Type of FU issued
system.cpu0.iq.FU_type_0::SimdFloatMult             0      0.00%     83.47% # Type of FU issued
system.cpu0.iq.FU_type_0::SimdFloatMultAcc            0      0.00%     83.47% # Type of FU issued
system.cpu0.iq.FU_type_0::SimdFloatSqrt             0      0.00%     83.47% # Type of FU issued
system.cpu0.iq.FU_type_0::MemRead              678779     15.57%     99.03% # Type of FU issued
system.cpu0.iq.FU_type_0::MemWrite              40145      0.92%     99.95% # Type of FU issued
system.cpu0.iq.FU_type_0::FloatMemRead           2004      0.05%    100.00% # Type of FU issued
system.cpu0.iq.FU_type_0::FloatMemWrite             0      0.00%    100.00% # Type of FU issued
system.cpu0.iq.FU_type_0::IprAccess                 0      0.00%    100.00% # Type of FU issued
system.cpu0.iq.FU_type_0::InstPrefetch              0      0.00%    100.00% # Type of FU issued
system.cpu0.iq.FU_type_0::total               4360837                       # Type of FU issued
system.cpu0.iq.rate                          0.142816                       # Inst issue rate
system.cpu0.iq.fu_busy_cnt                      12624                       # FU busy when requested
system.cpu0.iq.fu_busy_rate                  0.002895                       # FU busy rate (busy events/executed inst)
system.cpu0.iq.int_inst_queue_reads          39225056                       # Number of integer instruction queue reads
system.cpu0.iq.int_inst_queue_writes         10053545                       # Number of integer instruction queue writes
system.cpu0.iq.int_inst_queue_wakeup_accesses      4190359                       # Number of integer instruction queue wakeup accesses
system.cpu0.iq.fp_inst_queue_reads              26396                       # Number of floating instruction queue reads
system.cpu0.iq.fp_inst_queue_writes             23036                       # Number of floating instruction queue writes
system.cpu0.iq.fp_inst_queue_wakeup_accesses        11663                       # Number of floating instruction queue wakeup accesses
system.cpu0.iq.vec_inst_queue_reads                 0                       # Number of vector instruction queue reads
system.cpu0.iq.vec_inst_queue_writes                0                       # Number of vector instruction queue writes
system.cpu0.iq.vec_inst_queue_wakeup_accesses            0                       # Number of vector instruction queue wakeup accesses
system.cpu0.iq.int_alu_accesses               4347543                       # Number of integer alu accesses
system.cpu0.iq.fp_alu_accesses                  13610                       # Number of floating point alu accesses
system.cpu0.iq.vec_alu_accesses                     0                       # Number of vector alu accesses
system.cpu0.iew.lsq.thread0.forwLoads            3634                       # Number of loads that had data forwarded from stores
system.cpu0.iew.lsq.thread0.invAddrLoads            0                       # Number of loads ignored due to an invalid address
system.cpu0.iew.lsq.thread0.squashedLoads       752777                       # Number of loads squashed
system.cpu0.iew.lsq.thread0.ignoredResponses          116                       # Number of memory responses ignored because the instruction is squashed
system.cpu0.iew.lsq.thread0.memOrderViolation            0                       # Number of memory ordering violations
system.cpu0.iew.lsq.thread0.squashedStores        32741                       # Number of stores squashed
system.cpu0.iew.lsq.thread0.invAddrSwpfs            0                       # Number of software prefetches ignored due to an invalid address
system.cpu0.iew.lsq.thread0.blockedLoads            0                       # Number of blocked loads due to partial load-store forwarding
system.cpu0.iew.lsq.thread0.rescheduledLoads           24                       # Number of loads that were rescheduled
system.cpu0.iew.lsq.thread0.cacheBlocked         1202                       # Number of times an access to memory failed due to the cache being blocked
system.cpu0.iew.iewIdleCycles                       0                       # Number of cycles IEW is idle
system.cpu0.iew.iewSquashCycles                 56525                       # Number of cycles IEW is squashing
system.cpu0.iew.iewBlockCycles               26049886                       # Number of cycles IEW is blocking
system.cpu0.iew.iewUnblockCycles               250410                       # Number of cycles IEW is unblocking
system.cpu0.iew.iewDispatchedInsts            6167044                       # Number of instructions dispatched to IQ
system.cpu0.iew.iewDispSquashedInsts             3328                       # Number of squashed instructions skipped by dispatch
system.cpu0.iew.iewDispLoadInsts              1181442                       # Number of dispatched load instructions
system.cpu0.iew.iewDispStoreInsts               54469                       # Number of dispatched store instructions
system.cpu0.iew.iewDispNonSpecInsts              1244                       # Number of dispatched non-speculative instructions
system.cpu0.iew.iewIQFullEvents                 16802                       # Number of times the IQ has become full, causing a stall
system.cpu0.iew.iewLSQFullEvents                53480                       # Number of times the LSQ has become full, causing a stall
system.cpu0.iew.memOrderViolationEvents             0                       # Number of memory order violations
system.cpu0.iew.predictedTakenIncorrect         30194                       # Number of branches that were predicted taken incorrectly
system.cpu0.iew.predictedNotTakenIncorrect        31655                       # Number of branches that were predicted not taken incorrectly
system.cpu0.iew.branchMispredicts               61849                       # Number of branch mispredicts detected at execute
system.cpu0.iew.iewExecutedInsts              4289180                       # Number of executed instructions
system.cpu0.iew.iewExecLoadInsts               652095                       # Number of load instructions executed
system.cpu0.iew.iewExecSquashedInsts            71657                       # Number of squashed instructions skipped in execute
system.cpu0.iew.exec_swp                            0                       # number of swp insts executed
system.cpu0.iew.exec_nop                            0                       # number of nop insts executed
system.cpu0.iew.exec_refs                      689423                       # number of memory reference insts executed
system.cpu0.iew.exec_branches                  511966                       # Number of branches executed
system.cpu0.iew.exec_stores                     37328                       # Number of stores executed
system.cpu0.iew.exec_rate                    0.140469                       # Inst execution rate
system.cpu0.iew.wb_sent                       4214948                       # cumulative count of insts sent to commit
system.cpu0.iew.wb_count                      4202022                       # cumulative count of insts written-back
system.cpu0.iew.wb_producers                  3102975                       # num instructions producing a value
system.cpu0.iew.wb_consumers                  4881836                       # num instructions consuming a value
system.cpu0.iew.wb_rate                      0.137615                       # insts written-back per cycle
system.cpu0.iew.wb_fanout                    0.635616                       # average fanout of values written-back
system.cpu0.commit.commitSquashedInsts        3910080                       # The number of squashed insts skipped by commit
system.cpu0.commit.branchMispredicts            56525                       # The number of times a branch was mispredicted
system.cpu0.commit.committed_per_cycle::samples     29966649                       # Number of insts commited each cycle
system.cpu0.commit.committed_per_cycle::mean     0.075334                       # Number of insts commited each cycle
system.cpu0.commit.committed_per_cycle::stdev     0.499202                       # Number of insts commited each cycle
system.cpu0.commit.committed_per_cycle::underflows            0      0.00%      0.00% # Number of insts commited each cycle
system.cpu0.commit.committed_per_cycle::0     28967968     96.67%     96.67% # Number of insts commited each cycle
system.cpu0.commit.committed_per_cycle::1       466640      1.56%     98.22% # Number of insts commited each cycle
system.cpu0.commit.committed_per_cycle::2       108898      0.36%     98.59% # Number of insts commited each cycle
system.cpu0.commit.committed_per_cycle::3       301147      1.00%     99.59% # Number of insts commited each cycle
system.cpu0.commit.committed_per_cycle::4        53921      0.18%     99.77% # Number of insts commited each cycle
system.cpu0.commit.committed_per_cycle::5        26060      0.09%     99.86% # Number of insts commited each cycle
system.cpu0.commit.committed_per_cycle::6         4575      0.02%     99.88% # Number of insts commited each cycle
system.cpu0.commit.committed_per_cycle::7         3322      0.01%     99.89% # Number of insts commited each cycle
system.cpu0.commit.committed_per_cycle::8        34118      0.11%    100.00% # Number of insts commited each cycle
system.cpu0.commit.committed_per_cycle::overflows            0      0.00%    100.00% # Number of insts commited each cycle
system.cpu0.commit.committed_per_cycle::min_value            0                       # Number of insts commited each cycle
system.cpu0.commit.committed_per_cycle::max_value            8                       # Number of insts commited each cycle
system.cpu0.commit.committed_per_cycle::total     29966649                       # Number of insts commited each cycle
system.cpu0.commit.committedInsts             1130002                       # Number of instructions committed
system.cpu0.commit.committedOps               2257509                       # Number of ops (including micro ops) committed
system.cpu0.commit.swp_count                        0                       # Number of s/w prefetches committed
system.cpu0.commit.refs                        450394                       # Number of memory references committed
system.cpu0.commit.loads                       428666                       # Number of loads committed
system.cpu0.commit.membars                          0                       # Number of memory barriers committed
system.cpu0.commit.branches                    407921                       # Number of branches committed
system.cpu0.commit.vec_insts                        0                       # Number of committed Vector instructions.
system.cpu0.commit.fp_insts                      8786                       # Number of committed floating point instructions.
system.cpu0.commit.int_insts                  2248670                       # Number of committed integer instructions.
system.cpu0.commit.function_calls                3850                       # Number of function calls committed.
system.cpu0.commit.op_class_0::No_OpClass         2625      0.12%      0.12% # Class of committed instruction
system.cpu0.commit.op_class_0::IntAlu         1790494     79.31%     79.43% # Class of committed instruction
system.cpu0.commit.op_class_0::IntMult            154      0.01%     79.44% # Class of committed instruction
system.cpu0.commit.op_class_0::IntDiv            6342      0.28%     79.72% # Class of committed instruction
system.cpu0.commit.op_class_0::FloatAdd          7500      0.33%     80.05% # Class of committed instruction
system.cpu0.commit.op_class_0::FloatCmp             0      0.00%     80.05% # Class of committed instruction
system.cpu0.commit.op_class_0::FloatCvt             0      0.00%     80.05% # Class of committed instruction
system.cpu0.commit.op_class_0::FloatMult            0      0.00%     80.05% # Class of committed instruction
system.cpu0.commit.op_class_0::FloatMultAcc            0      0.00%     80.05% # Class of committed instruction
system.cpu0.commit.op_class_0::FloatDiv             0      0.00%     80.05% # Class of committed instruction
system.cpu0.commit.op_class_0::FloatMisc            0      0.00%     80.05% # Class of committed instruction
system.cpu0.commit.op_class_0::FloatSqrt            0      0.00%     80.05% # Class of committed instruction
system.cpu0.commit.op_class_0::SimdAdd              0      0.00%     80.05% # Class of committed instruction
system.cpu0.commit.op_class_0::SimdAddAcc            0      0.00%     80.05% # Class of committed instruction
system.cpu0.commit.op_class_0::SimdAlu              0      0.00%     80.05% # Class of committed instruction
system.cpu0.commit.op_class_0::SimdCmp              0      0.00%     80.05% # Class of committed instruction
system.cpu0.commit.op_class_0::SimdCvt              0      0.00%     80.05% # Class of committed instruction
system.cpu0.commit.op_class_0::SimdMisc             0      0.00%     80.05% # Class of committed instruction
system.cpu0.commit.op_class_0::SimdMult             0      0.00%     80.05% # Class of committed instruction
system.cpu0.commit.op_class_0::SimdMultAcc            0      0.00%     80.05% # Class of committed instruction
system.cpu0.commit.op_class_0::SimdShift            0      0.00%     80.05% # Class of committed instruction
system.cpu0.commit.op_class_0::SimdShiftAcc            0      0.00%     80.05% # Class of committed instruction
system.cpu0.commit.op_class_0::SimdSqrt             0      0.00%     80.05% # Class of committed instruction
system.cpu0.commit.op_class_0::SimdFloatAdd            0      0.00%     80.05% # Class of committed instruction
system.cpu0.commit.op_class_0::SimdFloatAlu            0      0.00%     80.05% # Class of committed instruction
system.cpu0.commit.op_class_0::SimdFloatCmp            0      0.00%     80.05% # Class of committed instruction
system.cpu0.commit.op_class_0::SimdFloatCvt            0      0.00%     80.05% # Class of committed instruction
system.cpu0.commit.op_class_0::SimdFloatDiv            0      0.00%     80.05% # Class of committed instruction
system.cpu0.commit.op_class_0::SimdFloatMisc            0      0.00%     80.05% # Class of committed instruction
system.cpu0.commit.op_class_0::SimdFloatMult            0      0.00%     80.05% # Class of committed instruction
system.cpu0.commit.op_class_0::SimdFloatMultAcc            0      0.00%     80.05% # Class of committed instruction
system.cpu0.commit.op_class_0::SimdFloatSqrt            0      0.00%     80.05% # Class of committed instruction
system.cpu0.commit.op_class_0::MemRead         427380     18.93%     98.98% # Class of committed instruction
system.cpu0.commit.op_class_0::MemWrite         21728      0.96%     99.94% # Class of committed instruction
system.cpu0.commit.op_class_0::FloatMemRead         1286      0.06%    100.00% # Class of committed instruction
system.cpu0.commit.op_class_0::FloatMemWrite            0      0.00%    100.00% # Class of committed instruction
system.cpu0.commit.op_class_0::IprAccess            0      0.00%    100.00% # Class of committed instruction
system.cpu0.commit.op_class_0::InstPrefetch            0      0.00%    100.00% # Class of committed instruction
system.cpu0.commit.op_class_0::total          2257509                       # Class of committed instruction
system.cpu0.commit.bw_lim_events                34118                       # number cycles where commit BW limit reached
system.cpu0.rob.rob_reads                    36100120                       # The number of ROB reads
system.cpu0.rob.rob_writes                   12882205                       # The number of ROB writes
system.cpu0.timesIdled                            166                       # Number of times that the entire CPU went into an idle state and unscheduled itself
system.cpu0.idleCycles                          22176                       # Total number of cycles that the CPU has spent unscheduled due to idling
system.cpu0.committedInsts                    1130002                       # Number of Instructions Simulated
system.cpu0.committedOps                      2257509                       # Number of Ops (including micro ops) Simulated
system.cpu0.cpi                             27.021800                       # CPI: Cycles Per Instruction
system.cpu0.cpi_total                       27.021800                       # CPI: Total CPI of All Threads
system.cpu0.ipc                              0.037007                       # IPC: Instructions Per Cycle
system.cpu0.ipc_total                        0.037007                       # IPC: Total IPC of All Threads
system.cpu0.int_regfile_reads                 4195089                       # number of integer regfile reads
system.cpu0.int_regfile_writes                3658062                       # number of integer regfile writes
system.cpu0.fp_regfile_reads                    20588                       # number of floating regfile reads
system.cpu0.fp_regfile_writes                   10239                       # number of floating regfile writes
system.cpu0.cc_regfile_reads                  2705156                       # number of cc regfile reads
system.cpu0.cc_regfile_writes                 1150708                       # number of cc regfile writes
system.cpu0.misc_regfile_reads                2271942                       # number of misc regfile reads
system.cpu0.dcache.tags.pwrStateResidencyTicks::UNDEFINED  15267344125                       # Cumulative time (in ticks) in various power states
system.cpu0.dcache.tags.replacements           225208                       # number of replacements
system.cpu0.dcache.tags.tagsinuse                1024                       # Cycle average of tags in use
system.cpu0.dcache.tags.total_refs             261855                       # Total number of references to valid blocks.
system.cpu0.dcache.tags.sampled_refs           225208                       # Sample count of references to valid blocks.
system.cpu0.dcache.tags.avg_refs             1.162725                       # Average number of references to valid blocks.
system.cpu0.dcache.tags.warmup_cycle                0                       # Cycle when the warmup percentage was hit.
system.cpu0.dcache.tags.occ_blocks::cpu0.data         1024                       # Average occupied blocks per requestor
system.cpu0.dcache.tags.occ_percent::cpu0.data            1                       # Average percentage of cache occupancy
system.cpu0.dcache.tags.occ_percent::total            1                       # Average percentage of cache occupancy
system.cpu0.dcache.tags.occ_task_id_blocks::1024         1024                       # Occupied blocks per task id
system.cpu0.dcache.tags.age_task_id_blocks_1024::0          145                       # Occupied blocks per task id
system.cpu0.dcache.tags.age_task_id_blocks_1024::1          789                       # Occupied blocks per task id
system.cpu0.dcache.tags.age_task_id_blocks_1024::2           90                       # Occupied blocks per task id
system.cpu0.dcache.tags.occ_task_id_percent::1024            1                       # Percentage of cache occupancy per task id
system.cpu0.dcache.tags.tag_accesses          2890752                       # Number of tag accesses
system.cpu0.dcache.tags.data_accesses         2890752                       # Number of data accesses
system.cpu0.dcache.pwrStateResidencyTicks::UNDEFINED  15267344125                       # Cumulative time (in ticks) in various power states
system.cpu0.dcache.ReadReq_hits::cpu0.data       242567                       # number of ReadReq hits
system.cpu0.dcache.ReadReq_hits::total         242567                       # number of ReadReq hits
system.cpu0.dcache.WriteReq_hits::cpu0.data        20903                       # number of WriteReq hits
system.cpu0.dcache.WriteReq_hits::total         20903                       # number of WriteReq hits
system.cpu0.dcache.demand_hits::cpu0.data       263470                       # number of demand (read+write) hits
system.cpu0.dcache.demand_hits::total          263470                       # number of demand (read+write) hits
system.cpu0.dcache.overall_hits::cpu0.data       263470                       # number of overall hits
system.cpu0.dcache.overall_hits::total         263470                       # number of overall hits
system.cpu0.dcache.ReadReq_misses::cpu0.data       402091                       # number of ReadReq misses
system.cpu0.dcache.ReadReq_misses::total       402091                       # number of ReadReq misses
system.cpu0.dcache.WriteReq_misses::cpu0.data          825                       # number of WriteReq misses
system.cpu0.dcache.WriteReq_misses::total          825                       # number of WriteReq misses
system.cpu0.dcache.demand_misses::cpu0.data       402916                       # number of demand (read+write) misses
system.cpu0.dcache.demand_misses::total        402916                       # number of demand (read+write) misses
system.cpu0.dcache.overall_misses::cpu0.data       402916                       # number of overall misses
system.cpu0.dcache.overall_misses::total       402916                       # number of overall misses
system.cpu0.dcache.ReadReq_miss_latency::cpu0.data  34882476000                       # number of ReadReq miss cycles
system.cpu0.dcache.ReadReq_miss_latency::total  34882476000                       # number of ReadReq miss cycles
system.cpu0.dcache.WriteReq_miss_latency::cpu0.data     31100999                       # number of WriteReq miss cycles
system.cpu0.dcache.WriteReq_miss_latency::total     31100999                       # number of WriteReq miss cycles
system.cpu0.dcache.demand_miss_latency::cpu0.data  34913576999                       # number of demand (read+write) miss cycles
system.cpu0.dcache.demand_miss_latency::total  34913576999                       # number of demand (read+write) miss cycles
system.cpu0.dcache.overall_miss_latency::cpu0.data  34913576999                       # number of overall miss cycles
system.cpu0.dcache.overall_miss_latency::total  34913576999                       # number of overall miss cycles
system.cpu0.dcache.ReadReq_accesses::cpu0.data       644658                       # number of ReadReq accesses(hits+misses)
system.cpu0.dcache.ReadReq_accesses::total       644658                       # number of ReadReq accesses(hits+misses)
system.cpu0.dcache.WriteReq_accesses::cpu0.data        21728                       # number of WriteReq accesses(hits+misses)
system.cpu0.dcache.WriteReq_accesses::total        21728                       # number of WriteReq accesses(hits+misses)
system.cpu0.dcache.demand_accesses::cpu0.data       666386                       # number of demand (read+write) accesses
system.cpu0.dcache.demand_accesses::total       666386                       # number of demand (read+write) accesses
system.cpu0.dcache.overall_accesses::cpu0.data       666386                       # number of overall (read+write) accesses
system.cpu0.dcache.overall_accesses::total       666386                       # number of overall (read+write) accesses
system.cpu0.dcache.ReadReq_miss_rate::cpu0.data     0.623728                       # miss rate for ReadReq accesses
system.cpu0.dcache.ReadReq_miss_rate::total     0.623728                       # miss rate for ReadReq accesses
system.cpu0.dcache.WriteReq_miss_rate::cpu0.data     0.037969                       # miss rate for WriteReq accesses
system.cpu0.dcache.WriteReq_miss_rate::total     0.037969                       # miss rate for WriteReq accesses
system.cpu0.dcache.demand_miss_rate::cpu0.data     0.604629                       # miss rate for demand accesses
system.cpu0.dcache.demand_miss_rate::total     0.604629                       # miss rate for demand accesses
system.cpu0.dcache.overall_miss_rate::cpu0.data     0.604629                       # miss rate for overall accesses
system.cpu0.dcache.overall_miss_rate::total     0.604629                       # miss rate for overall accesses
system.cpu0.dcache.ReadReq_avg_miss_latency::cpu0.data 86752.690311                       # average ReadReq miss latency
system.cpu0.dcache.ReadReq_avg_miss_latency::total 86752.690311                       # average ReadReq miss latency
system.cpu0.dcache.WriteReq_avg_miss_latency::cpu0.data 37698.180606                       # average WriteReq miss latency
system.cpu0.dcache.WriteReq_avg_miss_latency::total 37698.180606                       # average WriteReq miss latency
system.cpu0.dcache.demand_avg_miss_latency::cpu0.data 86652.247612                       # average overall miss latency
system.cpu0.dcache.demand_avg_miss_latency::total 86652.247612                       # average overall miss latency
[...]
system.l2.tags.tag_accesses                   3799606                       # Number of tag accesses
system.l2.tags.data_accesses                  3799606                       # Number of data accesses
system.l2.pwrStateResidencyTicks::UNDEFINED  15267344125                       # Cumulative time (in ticks) in various power states
system.l2.WritebackDirty_hits::writebacks         2052                       # number of WritebackDirty hits
system.l2.WritebackDirty_hits::total             2052                       # number of WritebackDirty hits
system.l2.ReadExReq_hits::cpu0.data               606                       # number of ReadExReq hits
system.l2.ReadExReq_hits::total                   606                       # number of ReadExReq hits
system.l2.ReadSharedReq_hits::cpu0.data         25816                       # number of ReadSharedReq hits
system.l2.ReadSharedReq_hits::total             25816                       # number of ReadSharedReq hits
system.l2.demand_hits::cpu0.data                26422                       # number of demand (read+write) hits
system.l2.demand_hits::total                    26422                       # number of demand (read+write) hits
system.l2.overall_hits::cpu0.data               26422                       # number of overall hits
system.l2.overall_hits::total                   26422                       # number of overall hits
system.l2.ReadExReq_misses::cpu0.data             207                       # number of ReadExReq misses
system.l2.ReadExReq_misses::total                 207                       # number of ReadExReq misses
system.l2.ReadSharedReq_misses::cpu0.data       198578                       # number of ReadSharedReq misses
system.l2.ReadSharedReq_misses::total          198578                       # number of ReadSharedReq misses
system.l2.demand_misses::cpu0.data             198785                       # number of demand (read+write) misses
system.l2.demand_misses::total                 198785                       # number of demand (read+write) misses
system.l2.overall_misses::cpu0.data            198785                       # number of overall misses
system.l2.overall_misses::total                198785                       # number of overall misses
system.l2.ReadExReq_miss_latency::cpu0.data     21518000                       # number of ReadExReq miss cycles
system.l2.ReadExReq_miss_latency::total      21518000                       # number of ReadExReq miss cycles
system.l2.ReadSharedReq_miss_latency::cpu0.data  18774376500                       # number of ReadSharedReq miss cycles
system.l2.ReadSharedReq_miss_latency::total  18774376500                       # number of ReadSharedReq miss cycles
system.l2.demand_miss_latency::cpu0.data  18795894500                       # number of demand (read+write) miss cycles
system.l2.demand_miss_latency::total      18795894500                       # number of demand (read+write) miss cycles
system.l2.overall_miss_latency::cpu0.data  18795894500                       # number of overall miss cycles
system.l2.overall_miss_latency::total     18795894500                       # number of overall miss cycles
system.l2.WritebackDirty_accesses::writebacks         2052                       # number of WritebackDirty accesses(hits+misses)
system.l2.WritebackDirty_accesses::total         2052                       # number of WritebackDirty accesses(hits+misses)
system.l2.ReadExReq_accesses::cpu0.data           813                       # number of ReadExReq accesses(hits+misses)
system.l2.ReadExReq_accesses::total               813                       # number of ReadExReq accesses(hits+misses)
system.l2.ReadSharedReq_accesses::cpu0.data       224394                       # number of ReadSharedReq accesses(hits+misses)
system.l2.ReadSharedReq_accesses::total        224394                       # number of ReadSharedReq accesses(hits+misses)
system.l2.demand_accesses::cpu0.data           225207                       # number of demand (read+write) accesses
system.l2.demand_accesses::total               225207                       # number of demand (read+write) accesses
system.l2.overall_accesses::cpu0.data          225207                       # number of overall (read+write) accesses
system.l2.overall_accesses::total              225207                       # number of overall (read+write) accesses
system.l2.ReadExReq_miss_rate::cpu0.data     0.254613                       # miss rate for ReadExReq accesses
system.l2.ReadExReq_miss_rate::total         0.254613                       # miss rate for ReadExReq accesses
system.l2.ReadSharedReq_miss_rate::cpu0.data     0.884952                       # miss rate for ReadSharedReq accesses
system.l2.ReadSharedReq_miss_rate::total     0.884952                       # miss rate for ReadSharedReq accesses
system.l2.demand_miss_rate::cpu0.data        0.882677                       # miss rate for demand accesses
system.l2.demand_miss_rate::total            0.882677                       # miss rate for demand accesses
system.l2.overall_miss_rate::cpu0.data       0.882677                       # miss rate for overall accesses
system.l2.overall_miss_rate::total           0.882677                       # miss rate for overall accesses
system.l2.ReadExReq_avg_miss_latency::cpu0.data 103951.690821                       # average ReadExReq miss latency
system.l2.ReadExReq_avg_miss_latency::total 103951.690821                       # average ReadExReq miss latency
system.l2.ReadSharedReq_avg_miss_latency::cpu0.data 94544.090987                       # average ReadSharedReq miss latency
system.l2.ReadSharedReq_avg_miss_latency::total 94544.090987                       # average ReadSharedReq miss latency
system.l2.demand_avg_miss_latency::cpu0.data 94553.887366                       # average overall miss latency
system.l2.demand_avg_miss_latency::total 94553.887366                       # average overall miss latency
system.l2.overall_avg_miss_latency::cpu0.data 94553.887366                       # average overall miss latency
system.l2.overall_avg_miss_latency::total 94553.887366                       # average overall miss latency
system.l2.blocked_cycles::no_mshrs                  0                       # number of cycles access was blocked
system.l2.blocked_cycles::no_targets                0                       # number of cycles access was blocked
system.l2.blocked::no_mshrs                         0                       # number of cycles access was blocked
system.l2.blocked::no_targets                       0                       # number of cycles access was blocked
system.l2.avg_blocked_cycles::no_mshrs            nan                       # average number of cycles each access was blocked
system.l2.avg_blocked_cycles::no_targets          nan                       # average number of cycles each access was blocked
system.l2.writebacks::writebacks                  352                       # number of writebacks
system.l2.writebacks::total                       352                       # number of writebacks
system.l2.ReadExReq_mshr_misses::cpu0.data          207                       # number of ReadExReq MSHR misses
system.l2.ReadExReq_mshr_misses::total            207                       # number of ReadExReq MSHR misses
system.l2.ReadSharedReq_mshr_misses::cpu0.data       198578                       # number of ReadSharedReq MSHR misses
system.l2.ReadSharedReq_mshr_misses::total       198578                       # number of ReadSharedReq MSHR misses
system.l2.demand_mshr_misses::cpu0.data        198785                       # number of demand (read+write) MSHR misses
system.l2.demand_mshr_misses::total            198785                       # number of demand (read+write) MSHR misses
system.l2.overall_mshr_misses::cpu0.data       198785                       # number of overall MSHR misses
system.l2.overall_mshr_misses::total           198785                       # number of overall MSHR misses
system.l2.ReadExReq_mshr_miss_latency::cpu0.data     19448000                       # number of ReadExReq MSHR miss cycles
system.l2.ReadExReq_mshr_miss_latency::total     19448000                       # number of ReadExReq MSHR miss cycles
system.l2.ReadSharedReq_mshr_miss_latency::cpu0.data  16788586500                       # number of ReadSharedReq MSHR miss cycles
system.l2.ReadSharedReq_mshr_miss_latency::total  16788586500                       # number of ReadSharedReq MSHR miss cycles
system.l2.demand_mshr_miss_latency::cpu0.data  16808034500                       # number of demand (read+write) MSHR miss cycles
system.l2.demand_mshr_miss_latency::total  16808034500                       # number of demand (read+write) MSHR miss cycles
system.l2.overall_mshr_miss_latency::cpu0.data  16808034500                       # number of overall MSHR miss cycles
system.l2.overall_mshr_miss_latency::total  16808034500                       # number of overall MSHR miss cycles
system.l2.ReadExReq_mshr_miss_rate::cpu0.data     0.254613                       # mshr miss rate for ReadExReq accesses
system.l2.ReadExReq_mshr_miss_rate::total     0.254613                       # mshr miss rate for ReadExReq accesses
system.l2.ReadSharedReq_mshr_miss_rate::cpu0.data     0.884952                       # mshr miss rate for ReadSharedReq accesses
system.l2.ReadSharedReq_mshr_miss_rate::total     0.884952                       # mshr miss rate for ReadSharedReq accesses
system.l2.demand_mshr_miss_rate::cpu0.data     0.882677                       # mshr miss rate for demand accesses
system.l2.demand_mshr_miss_rate::total       0.882677                       # mshr miss rate for demand accesses
system.l2.overall_mshr_miss_rate::cpu0.data     0.882677                       # mshr miss rate for overall accesses
system.l2.overall_mshr_miss_rate::total      0.882677                       # mshr miss rate for overall accesses
system.l2.ReadExReq_avg_mshr_miss_latency::cpu0.data 93951.690821                       # average ReadExReq mshr miss latency
system.l2.ReadExReq_avg_mshr_miss_latency::total 93951.690821                       # average ReadExReq mshr miss latency
system.l2.ReadSharedReq_avg_mshr_miss_latency::cpu0.data 84544.040629                       # average ReadSharedReq mshr miss latency
system.l2.ReadSharedReq_avg_mshr_miss_latency::total 84544.040629                       # average ReadSharedReq mshr miss latency
system.l2.demand_avg_mshr_miss_latency::cpu0.data 84553.837060                       # average overall mshr miss latency
system.l2.demand_avg_mshr_miss_latency::total 84553.837060                       # average overall mshr miss latency
system.l2.overall_avg_mshr_miss_latency::cpu0.data 84553.837060                       # average overall mshr miss latency
system.l2.overall_avg_mshr_miss_latency::total 84553.837060                       # average overall mshr miss latency
system.membus.snoop_filter.tot_requests        397564                       # Total number of requests made to the snoop filter.
system.membus.snoop_filter.hit_single_requests       198785                       # Number of requests hitting in the snoop filter with a single holder of the requested data.
system.membus.snoop_filter.hit_multi_requests            0                       # Number of requests hitting in the snoop filter with multiple (>1) holders of the requested data.
system.membus.snoop_filter.tot_snoops               0                       # Total number of snoops made to the snoop filter.
system.membus.snoop_filter.hit_single_snoops            0                       # Number of snoops hitting in the snoop filter with a single holder of the requested data.
system.membus.snoop_filter.hit_multi_snoops            0                       # Number of snoops hitting in the snoop filter with multiple (>1) holders of the requested data.
system.membus.pwrStateResidencyTicks::UNDEFINED  15267344125                       # Cumulative time (in ticks) in various power states
system.membus.trans_dist::ReadResp             198579                       # Transaction distribution
system.membus.trans_dist::WritebackDirty          352                       # Transaction distribution
system.membus.trans_dist::CleanEvict           198427                       # Transaction distribution
system.membus.trans_dist::ReadExReq               207                       # Transaction distribution
system.membus.trans_dist::ReadExResp              207                       # Transaction distribution
system.membus.trans_dist::ReadSharedReq        198578                       # Transaction distribution
system.membus.pkt_count_system.l2.mem_side::system.mem_ctrls.port       596350                       # Packet count per connected master and slave (bytes)
system.membus.pkt_count_system.l2.mem_side::total       596350                       # Packet count per connected master and slave (bytes)
system.membus.pkt_count::total                 596350                       # Packet count per connected master and slave (bytes)
system.membus.pkt_size_system.l2.mem_side::system.mem_ctrls.port     12744832                       # Cumulative packet size per connected master and slave (bytes)
system.membus.pkt_size_system.l2.mem_side::total     12744832                       # Cumulative packet size per connected master and slave (bytes)
system.membus.pkt_size::total                12744832                       # Cumulative packet size per connected master and slave (bytes)
system.membus.snoops                                0                       # Total snoops (count)
system.membus.snoopTraffic                          0                       # Total snoop traffic (bytes)
system.membus.snoop_fanout::samples            198785                       # Request fanout histogram
system.membus.snoop_fanout::mean                    0                       # Request fanout histogram
system.membus.snoop_fanout::stdev                   0                       # Request fanout histogram
system.membus.snoop_fanout::underflows              0      0.00%      0.00% # Request fanout histogram
system.membus.snoop_fanout::0                  198785    100.00%    100.00% # Request fanout histogram
system.membus.snoop_fanout::1                       0      0.00%    100.00% # Request fanout histogram
system.membus.snoop_fanout::overflows               0      0.00%    100.00% # Request fanout histogram
system.membus.snoop_fanout::min_value               0                       # Request fanout histogram
system.membus.snoop_fanout::max_value               0                       # Request fanout histogram
system.membus.snoop_fanout::total              198785                       # Request fanout histogram
system.membus.reqLayer4.occupancy           468940500                       # Layer occupancy (ticks)
system.membus.reqLayer4.utilization               3.1                       # Layer utilization (%)
system.membus.respLayer1.occupancy         1073125500                       # Layer occupancy (ticks)
system.membus.respLayer1.utilization              7.0                       # Layer utilization (%)
system.tol2bus.snoop_filter.tot_requests       450415                       # Total number of requests made to the snoop filter.
system.tol2bus.snoop_filter.hit_single_requests       225205                       # Number of requests hitting in the snoop filter with a single holder of the requested data.
system.tol2bus.snoop_filter.hit_multi_requests          550                       # Number of requests hitting in the snoop filter with multiple (>1) holders of the requested data.
system.tol2bus.snoop_filter.tot_snoops             11                       # Total number of snoops made to the snoop filter.
system.tol2bus.snoop_filter.hit_single_snoops           11                       # Number of snoops hitting in the snoop filter with a single holder of the requested data.
system.tol2bus.snoop_filter.hit_multi_snoops            0                       # Number of snoops hitting in the snoop filter with multiple (>1) holders of the requested data.
system.tol2bus.pwrStateResidencyTicks::UNDEFINED  15267344125                       # Cumulative time (in ticks) in various power states
system.tol2bus.trans_dist::ReadResp            224395                       # Transaction distribution
system.tol2bus.trans_dist::WritebackDirty         2404                       # Transaction distribution
system.tol2bus.trans_dist::CleanEvict          421594                       # Transaction distribution
system.tol2bus.trans_dist::ReadExReq              813                       # Transaction distribution
system.tol2bus.trans_dist::ReadExResp             813                       # Transaction distribution
system.tol2bus.trans_dist::ReadSharedReq       224394                       # Transaction distribution
system.tol2bus.pkt_count_system.cpu0.dcache.mem_side::system.l2.cpu_side       675623                       # Packet count per connected master and slave (bytes)
system.tol2bus.pkt_count::total                675623                       # Packet count per connected master and slave (bytes)
system.tol2bus.pkt_size_system.cpu0.dcache.mem_side::system.l2.cpu_side     14544640                       # Cumulative packet size per connected master and slave (bytes)
system.tol2bus.pkt_size::total               14544640                       # Cumulative packet size per connected master and slave (bytes)
system.tol2bus.snoops                          198790                       # Total snoops (count)
system.tol2bus.snoopTraffic                     22528                       # Total snoop traffic (bytes)
system.tol2bus.snoop_fanout::samples           423997                       # Request fanout histogram
system.tol2bus.snoop_fanout::mean            0.001316                       # Request fanout histogram
system.tol2bus.snoop_fanout::stdev           0.036254                       # Request fanout histogram
system.tol2bus.snoop_fanout::underflows             0      0.00%      0.00% # Request fanout histogram
system.tol2bus.snoop_fanout::0                 423439     99.87%     99.87% # Request fanout histogram
system.tol2bus.snoop_fanout::1                    558      0.13%    100.00% # Request fanout histogram
system.tol2bus.snoop_fanout::2                      0      0.00%    100.00% # Request fanout histogram
system.tol2bus.snoop_fanout::3                      0      0.00%    100.00% # Request fanout histogram
system.tol2bus.snoop_fanout::4                      0      0.00%    100.00% # Request fanout histogram
system.tol2bus.snoop_fanout::5                      0      0.00%    100.00% # Request fanout histogram
system.tol2bus.snoop_fanout::6                      0      0.00%    100.00% # Request fanout histogram
system.tol2bus.snoop_fanout::7                      0      0.00%    100.00% # Request fanout histogram
system.tol2bus.snoop_fanout::8                      0      0.00%    100.00% # Request fanout histogram
system.tol2bus.snoop_fanout::overflows              0      0.00%    100.00% # Request fanout histogram
system.tol2bus.snoop_fanout::min_value              0                       # Request fanout histogram
system.tol2bus.snoop_fanout::max_value              1                       # Request fanout histogram
system.tol2bus.snoop_fanout::total             423997                       # Request fanout histogram
system.tol2bus.reqLayer0.occupancy          227259500                       # Layer occupancy (ticks)
system.tol2bus.reqLayer0.utilization              1.5                       # Layer utilization (%)
system.tol2bus.respLayer1.occupancy         337812000                       # Layer occupancy (ticks)
system.tol2bus.respLayer1.utilization             2.2                       # Layer utilization (%)

---------- End Simulation Statistics   ----------
