
---------- Begin Simulation Statistics ----------
sim_seconds                                  0.015267                       # Number of seconds simulated
sim_ticks                                 15267344125                       # Number of ticks simulated
final_tick                               9313079916250                       # Number of ticks from beginning of simulation (restored from checkpoints and never reset)
sim_freq                                 1000000000000                       # Frequency of simulated ticks
host_inst_rate                               82470175                       # Simulator instruction rate (inst/s)
host_op_rate                                153692037                       # Simulator op (including micro ops) rate (op/s)
host_tick_rate                              209119708                       # Simulator tick rate (ticks/s)
host_mem_usage                                1248940                       # Number of bytes of host memory used
host_seconds                                    73.01                       # Real time elapsed on the host
sim_insts                                  6020952878                       # Number of instructions simulated
sim_ops                                   11220695963                       # Number of ops (including micro ops) simulated
system.voltage_domain.voltage                       1                       # Voltage in Volts
system.clk_domain.clock                          1000                       # Clock period in ticks
system.mem_ctrls.pwrStateResidencyTicks::UNDEFINED  15267344125                       # Cumulative time (in ticks) in various power states
system.mem_ctrls.bytes_read::cpu0.data       12653056                       # Number of bytes read from this memory
system.mem_ctrls.bytes_read::total           12653056                       # Number of bytes read from this memory
system.mem_ctrls.bytes_written::writebacks        18944                       # Number of bytes written to this memory
system.mem_ctrls.bytes_written::total           18944                       # Number of bytes written to this memory
system.mem_ctrls.num_reads::cpu0.data          197704                       # Number of read requests responded to by this memory
system.mem_ctrls.num_reads::total              197704                       # Number of read requests responded to by this memory
system.mem_ctrls.num_writes::writebacks           296                       # Number of write requests responded to by this memory
system.mem_ctrls.num_writes::total                296                       # Number of write requests responded to by this memory
system.mem_ctrls.bw_read::cpu0.data         828766018                       # Total read bandwidth from this memory (bytes/s)
system.mem_ctrls.bw_read::total             828766018                       # Total read bandwidth from this memory (bytes/s)
system.mem_ctrls.bw_write::writebacks         1240818                       # Write bandwidth from this memory (bytes/s)
system.mem_ctrls.bw_write::total              1240818                       # Write bandwidth from this memory (bytes/s)
system.mem_ctrls.bw_total::writebacks         1240818                       # Total bandwidth to/from this memory (bytes/s)
system.mem_ctrls.bw_total::cpu0.data        828766018                       # Total bandwidth to/from this memory (bytes/s)
system.mem_ctrls.bw_total::total            830006837                       # Total bandwidth to/from this memory (bytes/s)
system.mem_ctrls.readReqs                      197704                       # Number of read requests accepted
system.mem_ctrls.writeReqs                        296                       # Number of write requests accepted
system.mem_ctrls.readBursts                    197704                       # Number of DRAM read bursts, including those serviced by the write queue
system.mem_ctrls.writeBursts                      296                       # Number of DRAM write bursts, including those merged in the write queue
system.mem_ctrls.bytesReadDRAM               12650432                       # Total number of bytes read from DRAM
system.mem_ctrls.bytesReadWrQ                    2624                       # Total number of bytes read from write queue
system.mem_ctrls.bytesWritten                   18432                       # Total number of bytes written to DRAM
system.mem_ctrls.bytesReadSys                12653056                       # Total read bytes from the system interface side
system.mem_ctrls.bytesWrittenSys                18944                       # Total written bytes from the system interface side
system.mem_ctrls.servicedByWrQ                     41                       # Number of DRAM read bursts serviced by the write queue
system.mem_ctrls.mergedWrBursts                     7                       # Number of DRAM write bursts merged with an existing one
system.mem_ctrls.neitherReadNorWriteReqs            0                       # Number of requests that are neither read nor write
system.mem_ctrls.perBankRdBursts::0             12175                       # Per bank write bursts
system.mem_ctrls.perBankRdBursts::1             12273                       # Per bank write bursts
system.mem_ctrls.perBankRdBursts::2             12110                       # Per bank write bursts
system.mem_ctrls.perBankRdBursts::3             12322                       # Per bank write bursts
system.mem_ctrls.perBankRdBursts::4             12509                       # Per bank write bursts
system.mem_ctrls.perBankRdBursts::5             12713                       # Per bank write bursts
system.mem_ctrls.perBankRdBursts::6             12615                       # Per bank write bursts
system.mem_ctrls.perBankRdBursts::7             12257                       # Per bank write bursts
system.mem_ctrls.perBankRdBursts::8             12501                       # Per bank write bursts
system.mem_ctrls.perBankRdBursts::9             12216                       # Per bank write bursts
system.mem_ctrls.perBankRdBursts::10            12240                       # Per bank write bursts
system.mem_ctrls.perBankRdBursts::11            12204                       # Per bank write bursts
system.mem_ctrls.perBankRdBursts::12            12686                       # Per bank write bursts
system.mem_ctrls.perBankRdBursts::13            12391                       # Per bank write bursts
system.mem_ctrls.perBankRdBursts::14            12408                       # Per bank write bursts
system.mem_ctrls.perBankRdBursts::15            12043                       # Per bank write bursts
system.mem_ctrls.perBankWrBursts::0                 0                       # Per bank write bursts
system.mem_ctrls.perBankWrBursts::1                 0                       # Per bank write bursts
system.mem_ctrls.perBankWrBursts::2                 0                       # Per bank write bursts
system.mem_ctrls.perBankWrBursts::3               100                       # Per bank write bursts
system.mem_ctrls.perBankWrBursts::4                11                       # Per bank write bursts
system.mem_ctrls.perBankWrBursts::5                15                       # Per bank write bursts
system.mem_ctrls.perBankWrBursts::6                 0                       # Per bank write bursts
system.mem_ctrls.perBankWrBursts::7                 0                       # Per bank write bursts
system.mem_ctrls.perBankWrBursts::8                 0                       # Per bank write bursts
system.mem_ctrls.perBankWrBursts::9                 0                       # Per bank write bursts
system.mem_ctrls.perBankWrBursts::10                0                       # Per bank write bursts
system.mem_ctrls.perBankWrBursts::11                8                       # Per bank write bursts
system.mem_ctrls.perBankWrBursts::12                0                       # Per bank write bursts
system.mem_ctrls.perBankWrBursts::13               50                       # Per bank write bursts
system.mem_ctrls.perBankWrBursts::14              104                       # Per bank write bursts
system.mem_ctrls.perBankWrBursts::15                0                       # Per bank write bursts
system.mem_ctrls.numRdRetry                         0                       # Number of times read queue was full causing retry
system.mem_ctrls.numWrRetry                         0                       # Number of times write queue was full causing retry
system.mem_ctrls.totGap                   15267489500                       # Total gap between requests
system.mem_ctrls.readPktSize::0                     0                       # Read request sizes (log2)
system.mem_ctrls.readPktSize::1                     0                       # Read request sizes (log2)
system.mem_ctrls.readPktSize::2                     0                       # Read request sizes (log2)
system.mem_ctrls.readPktSize::3                     0                       # Read request sizes (log2)
system.mem_ctrls.readPktSize::4                     0                       # Read request sizes (log2)
system.mem_ctrls.readPktSize::5                     0                       # Read request sizes (log2)
system.mem_ctrls.readPktSize::6                197704                       # Read request sizes (log2)
system.mem_ctrls.writePktSize::0                    0                       # Write request sizes (log2)
system.mem_ctrls.writePktSize::1                    0                       # Write request sizes (log2)
system.mem_ctrls.writePktSize::2                    0                       # Write request sizes (log2)
system.mem_ctrls.writePktSize::3                    0                       # Write request sizes (log2)
system.mem_ctrls.writePktSize::4                    0                       # Write request sizes (log2)
system.mem_ctrls.writePktSize::5                    0                       # Write request sizes (log2)
system.mem_ctrls.writePktSize::6                  296                       # Write request sizes (log2)
system.mem_ctrls.rdQLenPdf::0                  149335                       # What read queue length does an incoming req see
system.mem_ctrls.rdQLenPdf::1                   45439                       # What read queue length does an incoming req see
system.mem_ctrls.rdQLenPdf::2                    2863                       # What read queue length does an incoming req see
system.mem_ctrls.rdQLenPdf::3                      26                       # What read queue length does an incoming req see
system.mem_ctrls.rdQLenPdf::4                       0                       # What read queue length does an incoming req see
system.mem_ctrls.rdQLenPdf::5                       0                       # What read queue length does an incoming req see
system.mem_ctrls.rdQLenPdf::6                       0                       # What read queue length does an incoming req see
system.mem_ctrls.rdQLenPdf::7                       0                       # What read queue length does an incoming req see
system.mem_ctrls.rdQLenPdf::8                       0                       # What read queue length does an incoming req see
system.mem_ctrls.rdQLenPdf::9                       0                       # What read queue length does an incoming req see
system.mem_ctrls.rdQLenPdf::10                      0                       # What read queue length does an incoming req see
system.mem_ctrls.rdQLenPdf::11                      0                       # What read queue length does an incoming req see
system.mem_ctrls.rdQLenPdf::12                      0                       # What read queue length does an incoming req see
system.mem_ctrls.rdQLenPdf::13                      0                       # What read queue length does an incoming req see
system.mem_ctrls.rdQLenPdf::14                      0                       # What read queue length does an incoming req see
system.mem_ctrls.rdQLenPdf::15                      0                       # What read queue length does an incoming req see
system.mem_ctrls.rdQLenPdf::16                      0                       # What read queue length does an incoming req see
system.mem_ctrls.rdQLenPdf::17                      0                       # What read queue length does an incoming req see
system.mem_ctrls.rdQLenPdf::18                      0                       # What read queue length does an incoming req see
system.mem_ctrls.rdQLenPdf::19                      0                       # What read queue length does an incoming req see
system.mem_ctrls.rdQLenPdf::20                      0                       # What read queue length does an incoming req see
system.mem_ctrls.rdQLenPdf::21                      0                       # What read queue length does an incoming req see
system.mem_ctrls.rdQLenPdf::22                      0                       # What read queue length does an incoming req see
system.mem_ctrls.rdQLenPdf::23                      0                       # What read queue length does an incoming req see
system.mem_ctrls.rdQLenPdf::24                      0                       # What read queue length does an incoming req see
system.mem_ctrls.rdQLenPdf::25                      0                       # What read queue length does an incoming req see
system.mem_ctrls.rdQLenPdf::26                      0                       # What read queue length does an incoming req see
system.mem_ctrls.rdQLenPdf::27                      0                       # What read queue length does an incoming req see
system.mem_ctrls.rdQLenPdf::28                      0                       # What read queue length does an incoming req see
system.mem_ctrls.rdQLenPdf::29                      0                       # What read queue length does an incoming req see
system.mem_ctrls.rdQLenPdf::30                      0                       # What read queue length does an incoming req see
system.mem_ctrls.rdQLenPdf::31                      0                       # What read queue length does an incoming req see
system.mem_ctrls.wrQLenPdf::0                       0                       # What write queue length does an incoming req see
system.mem_ctrls.wrQLenPdf::1                       0                       # What write queue length does an incoming req see
system.mem_ctrls.wrQLenPdf::2                       0                       # What write queue length does an incoming req see
system.mem_ctrls.wrQLenPdf::3                       0                       # What write queue length does an incoming req see
system.mem_ctrls.wrQLenPdf::4                       0                       # What write queue length does an incoming req see
system.mem_ctrls.wrQLenPdf::5                       0                       # What write queue length does an incoming req see
system.mem_ctrls.wrQLenPdf::6                       0                       # What write queue length does an incoming req see
system.mem_ctrls.wrQLenPdf::7                       0                       # What write queue length does an incoming req see
system.mem_ctrls.wrQLenPdf::8                       0                       # What write queue length does an incoming req see
system.mem_ctrls.wrQLenPdf::9                       0                       # What write queue length does an incoming req see
system.mem_ctrls.wrQLenPdf::10                      0                       # What write queue length does an incoming req see
system.mem_ctrls.wrQLenPdf::11                      0                       # What write queue length does an incoming req see
system.mem_ctrls.wrQLenPdf::12                      0                       # What write queue length does an incoming req see
system.mem_ctrls.wrQLenPdf::13                      0                       # What write queue length does an incoming req see
system.mem_ctrls.wrQLenPdf::14                      0                       # What write queue length does an incoming req see
system.mem_ctrls.wrQLenPdf::15                      0                       # What write queue length does an incoming req see
system.mem_ctrls.wrQLenPdf::16                      0                       # What write queue length does an incoming req see
system.mem_ctrls.wrQLenPdf::17                     18                       # What write queue length does an incoming req see
system.mem_ctrls.wrQLenPdf::18                     18                       # What write queue length does an incoming req see
system.mem_ctrls.wrQLenPdf::19                     18                       # What write queue length does an incoming req see
system.mem_ctrls.wrQLenPdf::20                     18                       # What write queue length does an incoming req see
system.mem_ctrls.wrQLenPdf::21                     18                       # What write queue length does an incoming req see
system.mem_ctrls.wrQLenPdf::22                     19                       # What write queue length does an incoming req see
system.mem_ctrls.wrQLenPdf::23                     18                       # What write queue length does an incoming req see
system.mem_ctrls.wrQLenPdf::24                     18                       # What write queue length does an incoming req see
system.mem_ctrls.wrQLenPdf::25                     18                       # What write queue length does an incoming req see
system.mem_ctrls.wrQLenPdf::26                     18                       # What write queue length does an incoming req see
system.mem_ctrls.wrQLenPdf::27                     18                       # What write queue length does an incoming req see
system.mem_ctrls.wrQLenPdf::28                     18                       # What write queue length does an incoming req see
system.mem_ctrls.wrQLenPdf::29                     18                       # What write queue length does an incoming req see
system.mem_ctrls.wrQLenPdf::30                     18                       # What write queue length does an incoming req see
system.mem_ctrls.wrQLenPdf::31                     18                       # What write queue length does an incoming req see
system.mem_ctrls.wrQLenPdf::32                     18                       # What write queue length does an incoming req see
system.mem_ctrls.wrQLenPdf::33                      0                       # What write queue length does an incoming req see
system.mem_ctrls.wrQLenPdf::34                      0                       # What write queue length does an incoming req see
system.mem_ctrls.wrQLenPdf::35                      0                       # What write queue length does an incoming req see
system.mem_ctrls.wrQLenPdf::36                      0                       # What write queue length does an incoming req see
system.mem_ctrls.wrQLenPdf::37                      0                       # What write queue length does an incoming req see
system.mem_ctrls.wrQLenPdf::38                      0                       # What write queue length does an incoming req see
system.mem_ctrls.wrQLenPdf::39                      0                       # What write queue length does an incoming req see
system.mem_ctrls.wrQLenPdf::40                      0                       # What write queue length does an incoming req see
system.mem_ctrls.wrQLenPdf::41                      0                       # What write queue length does an incoming req see
system.mem_ctrls.wrQLenPdf::42                      0                       # What write queue length does an incoming req see
system.mem_ctrls.wrQLenPdf::43                      0                       # What write queue length does an incoming req see
system.mem_ctrls.wrQLenPdf::44                      0                       # What write queue length does an incoming req see
system.mem_ctrls.wrQLenPdf::45                      0                       # What write queue length does an incoming req see
system.mem_ctrls.wrQLenPdf::46                      0                       # What write queue length does an incoming req see
system.mem_ctrls.wrQLenPdf::47                      0                       # What write queue length does an incoming req see
system.mem_ctrls.wrQLenPdf::48                      0                       # What write queue length does an incoming req see
system.mem_ctrls.wrQLenPdf::49                      0                       # What write queue length does an incoming req see
system.mem_ctrls.wrQLenPdf::50                      0                       # What write queue length does an incoming req see
system.mem_ctrls.wrQLenPdf::51                      0                       # What write queue length does an incoming req see
system.mem_ctrls.wrQLenPdf::52                      0                       # What write queue length does an incoming req see
system.mem_ctrls.wrQLenPdf::53                      0                       # What write queue length does an incoming req see
system.mem_ctrls.wrQLenPdf::54                      0                       # What write queue length does an incoming req see
system.mem_ctrls.wrQLenPdf::55                      0                       # What write queue length does an incoming req see
system.mem_ctrls.wrQLenPdf::56                      0                       # What write queue length does an incoming req see
system.mem_ctrls.wrQLenPdf::57                      0                       # What write queue length does an incoming req see
system.mem_ctrls.wrQLenPdf::58                      0                       # What write queue length does an incoming req see
system.mem_ctrls.wrQLenPdf::59                      0                       # What write queue length does an incoming req see
system.mem_ctrls.wrQLenPdf::60                      0                       # What write queue length does an incoming req see
system.mem_ctrls.wrQLenPdf::61                      0                       # What write queue length does an incoming req see
system.mem_ctrls.wrQLenPdf::62                      0                       # What write queue length does an incoming req see
system.mem_ctrls.wrQLenPdf::63                      0                       # What write queue length does an incoming req see
system.mem_ctrls.bytesPerActivate::samples        97156                       # Bytes accessed per row activation
system.mem_ctrls.bytesPerActivate::mean    130.395158                       # Bytes accessed per row activation
system.mem_ctrls.bytesPerActivate::gmean   112.126880                       # Bytes accessed per row activation
system.mem_ctrls.bytesPerActivate::stdev    77.450150                       # Bytes accessed per row activation
system.mem_ctrls.bytesPerActivate::0-127        40456     41.64%     41.64% # Bytes accessed per row activation
system.mem_ctrls.bytesPerActivate::128-255        45335     46.66%     88.30% # Bytes accessed per row activation
system.mem_ctrls.bytesPerActivate::256-383         9823     10.11%     98.41% # Bytes accessed per row activation
system.mem_ctrls.bytesPerActivate::384-511         1363      1.40%     99.82% # Bytes accessed per row activation
system.mem_ctrls.bytesPerActivate::512-639          145      0.15%     99.97% # Bytes accessed per row activation
system.mem_ctrls.bytesPerActivate::640-767           19      0.02%     99.98% # Bytes accessed per row activation
system.mem_ctrls.bytesPerActivate::768-895            4      0.00%     99.99% # Bytes accessed per row activation
system.mem_ctrls.bytesPerActivate::896-1023            4      0.00%     99.99% # Bytes accessed per row activation
system.mem_ctrls.bytesPerActivate::1024-1151            7      0.01%    100.00% # Bytes accessed per row activation
system.mem_ctrls.bytesPerActivate::total        97156                       # Bytes accessed per row activation
system.mem_ctrls.rdPerTurnAround::samples           18                       # Reads before turning the bus around for writes
system.mem_ctrls.rdPerTurnAround::mean   10838.666667                       # Reads before turning the bus around for writes
system.mem_ctrls.rdPerTurnAround::gmean  10676.976578                       # Reads before turning the bus around for writes
system.mem_ctrls.rdPerTurnAround::stdev   1911.705583                       # Reads before turning the bus around for writes
system.mem_ctrls.rdPerTurnAround::7168-7679            1      5.56%      5.56% # Reads before turning the bus around for writes
system.mem_ctrls.rdPerTurnAround::7680-8191            1      5.56%     11.11% # Reads before turning the bus around for writes
system.mem_ctrls.rdPerTurnAround::8704-9215            1      5.56%     16.67% # Reads before turning the bus around for writes
system.mem_ctrls.rdPerTurnAround::9216-9727            1      5.56%     22.22% # Reads before turning the bus around for writes
system.mem_ctrls.rdPerTurnAround::9728-10239            4     22.22%     44.44% # Reads before turning the bus around for writes
system.mem_ctrls.rdPerTurnAround::10240-10751            2     11.11%     55.56% # Reads before turning the bus around for writes
system.mem_ctrls.rdPerTurnAround::10752-11263            1      5.56%     61.11% # Reads before turning the bus around for writes
system.mem_ctrls.rdPerTurnAround::11264-11775            1      5.56%     66.67% # Reads before turning the bus around for writes
system.mem_ctrls.rdPerTurnAround::11776-12287            2     11.11%     77.78% # Reads before turning the bus around for writes
system.mem_ctrls.rdPerTurnAround::12288-12799            1      5.56%     83.33% # Reads before turning the bus around for writes
system.mem_ctrls.rdPerTurnAround::12800-13311            1      5.56%     88.89% # Reads before turning the bus around for writes
system.mem_ctrls.rdPerTurnAround::13312-13823            1      5.56%     94.44% # Reads before turning the bus around for writes
system.mem_ctrls.rdPerTurnAround::14336-14847            1      5.56%    100.00% # Reads before turning the bus around for writes
system.mem_ctrls.rdPerTurnAround::total            18                       # Reads before turning the bus around for writes
system.mem_ctrls.wrPerTurnAround::samples           18                       # Writes before turning the bus around for reads
system.mem_ctrls.wrPerTurnAround::mean             16                       # Writes before turning the bus around for reads
system.mem_ctrls.wrPerTurnAround::gmean     16.000000                       # Writes before turning the bus around for reads
system.mem_ctrls.wrPerTurnAround::16               18    100.00%    100.00% # Writes before turning the bus around for reads
system.mem_ctrls.wrPerTurnAround::total            18                       # Writes before turning the bus around for reads
system.mem_ctrls.totQLat                   4855415000                       # Total ticks spent queuing
system.mem_ctrls.totMemAccLat              8561596250                       # Total ticks spent from burst creation until serviced by the DRAM
system.mem_ctrls.totBusLat                  988315000                       # Total ticks spent in databus transfers
system.mem_ctrls.avgQLat                     24564.11                       # Average queueing delay per DRAM burst
system.mem_ctrls.avgBusLat                    5000.00                       # Average bus latency per DRAM burst
system.mem_ctrls.avgMemAccLat                43314.11                       # Average memory access latency per DRAM burst
system.mem_ctrls.avgRdBW                       828.59                       # Average DRAM read bandwidth in MiByte/s
system.mem_ctrls.avgWrBW                         1.21                       # Average achieved write bandwidth in MiByte/s
system.mem_ctrls.avgRdBWSys                    828.77                       # Average system read bandwidth in MiByte/s
system.mem_ctrls.avgWrBWSys                      1.24                       # Average system write bandwidth in MiByte/s
system.mem_ctrls.peakBW                      12800.00                       # Theoretical peak bandwidth in MiByte/s
system.mem_ctrls.busUtil                         6.48                       # Data bus utilization in percentage
system.mem_ctrls.busUtilRead                     6.47                       # Data bus utilization in percentage for reads
system.mem_ctrls.busUtilWrite                    0.01                       # Data bus utilization in percentage for writes
system.mem_ctrls.avgRdQLen                       1.32                       # Average read queue length when enqueuing
system.mem_ctrls.avgWrQLen                      25.06                       # Average write queue length when enqueuing
system.mem_ctrls.readRowHits                   100546                       # Number of row buffer hits during reads
system.mem_ctrls.writeRowHits                     252                       # Number of row buffer hits during writes
system.mem_ctrls.readRowHitRate                 50.87                       # Row buffer hit rate for reads
system.mem_ctrls.writeRowHitRate                87.20                       # Row buffer hit rate for writes
system.mem_ctrls.avgGap                      77108.53                       # Average gap between requests
system.mem_ctrls.pageHitRate                    50.92                       # Row buffer hit rate, read and write combined
system.mem_ctrls_0.actEnergy                347825100                       # Energy for activate commands per rank (pJ)
system.mem_ctrls_0.preEnergy                184854450                       # Energy for precharge commands per rank (pJ)
system.mem_ctrls_0.readEnergy               706674360                       # Energy for read commands per rank (pJ)
system.mem_ctrls_0.writeEnergy                 657720                       # Energy for write commands per rank (pJ)
system.mem_ctrls_0.refreshEnergy         1204694400.000000                       # Energy for refresh commands per rank (pJ)
system.mem_ctrls_0.actBackEnergy           1644891750                       # Energy for active background per rank (pJ)
system.mem_ctrls_0.preBackEnergy             23899200                       # Energy for precharge background per rank (pJ)
system.mem_ctrls_0.actPowerDownEnergy      5210256000                       # Energy for active power-down per rank (pJ)
system.mem_ctrls_0.prePowerDownEnergy        66004800                       # Energy for precharge power-down per rank (pJ)
system.mem_ctrls_0.selfRefreshEnergy                0                       # Energy for self refresh per rank (pJ)
system.mem_ctrls_0.totalEnergy             9389757780                       # Total energy per rank (pJ)
system.mem_ctrls_0.averagePower            615.022345                       # Core power per rank (mW)
system.mem_ctrls_0.totalIdleTime          11597273625                       # Total Idle time Per DRAM Rank
system.mem_ctrls_0.memoryStateTime::IDLE      9228000                       # Time in different power states
system.mem_ctrls_0.memoryStateTime::REF     509600000                       # Time in different power states
system.mem_ctrls_0.memoryStateTime::SREF            0                       # Time in different power states
system.mem_ctrls_0.memoryStateTime::PRE_PDN    172126750                       # Time in different power states
system.mem_ctrls_0.memoryStateTime::ACT    3151225000                       # Time in different power states
system.mem_ctrls_0.memoryStateTime::ACT_PDN  11425164375                       # Time in different power states
system.mem_ctrls_1.actEnergy                345847320                       # Energy for activate commands per rank (pJ)
system.mem_ctrls_1.preEnergy                183852570                       # Energy for precharge commands per rank (pJ)
system.mem_ctrls_1.readEnergy               704639460                       # Energy for read commands per rank (pJ)
system.mem_ctrls_1.writeEnergy                 845640                       # Energy for write commands per rank (pJ)
system.mem_ctrls_1.refreshEnergy         1205309040.000000                       # Energy for refresh commands per rank (pJ)
system.mem_ctrls_1.actBackEnergy           1638707820                       # Energy for active background per rank (pJ)
system.mem_ctrls_1.preBackEnergy             24493920                       # Energy for precharge background per rank (pJ)
system.mem_ctrls_1.actPowerDownEnergy      5163035490                       # Energy for active power-down per rank (pJ)
system.mem_ctrls_1.prePowerDownEnergy       110382240                       # Energy for precharge power-down per rank (pJ)
system.mem_ctrls_1.selfRefreshEnergy                0                       # Energy for self refresh per rank (pJ)
system.mem_ctrls_1.totalEnergy             9377113500                       # Total energy per rank (pJ)
system.mem_ctrls_1.averagePower            614.194153                       # Core power per rank (mW)
system.mem_ctrls_1.totalIdleTime          11610055375                       # Total Idle time Per DRAM Rank
system.mem_ctrls_1.memoryStateTime::IDLE      9568500                       # Time in different power states
system.mem_ctrls_1.memoryStateTime::REF     509860000                       # Time in different power states
system.mem_ctrls_1.memoryStateTime::SREF            0                       # Time in different power states
system.mem_ctrls_1.memoryStateTime::PRE_PDN    287630750                       # Time in different power states
system.mem_ctrls_1.memoryStateTime::ACT    3137555750                       # Time in different power states
system.mem_ctrls_1.memoryStateTime::ACT_PDN  11322729125                       # Time in different power states
system.pwrStateResidencyTicks::UNDEFINED  15267344125                       # Cumulative time (in ticks) in various power states
system.cpu0.branchPred.lookups                1293521                       # Number of BP lookups
system.cpu0.branchPred.condPredicted          1293521                       # Number of conditional branches predicted
system.cpu0.branchPred.condIncorrect            49044                       # Number of conditional branches incorrect
system.cpu0.branchPred.BTBLookups              928361                       # Number of BTB lookups
system.cpu0.branchPred.BTBHits                      0                       # Number of BTB hits
system.cpu0.branchPred.BTBCorrect                   0                       # Number of correct BTB predictions (this stat may not work properly.
system.cpu0.branchPred.BTBHitPct             0.000000                       # BTB Hit Percentage
system.cpu0.branchPred.usedRAS                  32009                       # Number of times the RAS was used to get a target.
system.cpu0.branchPred.RASInCorrect              5082                       # Number of incorrect RAS predictions.
system.cpu0.branchPred.indirectLookups         928361                       # Number of indirect predictor lookups.
system.cpu0.branchPred.indirectHits            563139                       # Number of indirect target hits.
system.cpu0.branchPred.indirectMisses          365222                       # Number of indirect misses.
system.cpu0.branchPredindirectMispredicted        13384                       # Number of mispredicted indirect branches.
system.cpu_voltage_domain.voltage                   1                       # Voltage in Volts
system.cpu_clk_domain.clock                       500                       # Clock period in ticks
system.cpu0.dtb.walker.pwrStateResidencyTicks::UNDEFINED  15267344125                       # Cumulative time (in ticks) in various power states
system.cpu0.dtb.rdAccesses                     612037                       # TLB accesses on read requests
system.cpu0.dtb.wrAccesses                      38158                       # TLB accesses on write requests
system.cpu0.dtb.rdMisses                       133635                       # TLB misses on read requests
system.cpu0.dtb.wrMisses                          710                       # TLB misses on write requests
system.cpu0.apic_clk_domain.clock                8000                       # Clock period in ticks
system.cpu0.interrupts.pwrStateResidencyTicks::UNDEFINED  15267344125                       # Cumulative time (in ticks) in various power states
system.cpu0.itb.walker.pwrStateResidencyTicks::UNDEFINED  15267344125                       # Cumulative time (in ticks) in various power states
system.cpu0.itb.rdAccesses                          0                       # TLB accesses on read requests
system.cpu0.itb.wrAccesses                    1115626                       # TLB accesses on write requests
system.cpu0.itb.rdMisses                            0                       # TLB misses on read requests
system.cpu0.itb.wrMisses                         3415                       # TLB misses on write requests
system.cpu0.workload.numSyscalls                    0                       # Number of system calls
system.cpu0.pwrStateResidencyTicks::ON    15267344125                       # Cumulative time (in ticks) in various power states
system.cpu0.numCycles                        30534688                       # number of cpu cycles simulated
system.cpu0.numWorkItemsStarted                     0                       # number of work items this cpu started
system.cpu0.numWorkItemsCompleted                   0                       # number of work items this cpu completed
system.cpu0.fetch.icacheStallCycles           1136851                       # Number of cycles fetch is stalled on an Icache miss
system.cpu0.fetch.Insts                       3714152                       # Number of instructions fetch has processed
system.cpu0.fetch.Branches                    1293521                       # Number of branches that fetch encountered
system.cpu0.fetch.predictedBranches            595148                       # Number of branches that fetch has predicted taken
system.cpu0.fetch.Cycles                     29270130                       # Number of cycles fetch has run and was not squashing or blocked
system.cpu0.fetch.SquashCycles                 100302                       # Number of cycles fetch has spent squashing
system.cpu0.fetch.TlbCycles                      1957                       # Number of cycles fetch has spent waiting for tlb
system.cpu0.fetch.MiscStallCycles                 814                       # Number of cycles fetch has spent waiting on interrupts, or bad addresses, or out of MSHRs
system.cpu0.fetch.PendingTrapStallCycles        31054                       # Number of stall cycles due to pending traps
system.cpu0.fetch.CacheLines                  1112211                       # Number of cache lines fetched
system.cpu0.fetch.IcacheSquashes                 4533                       # Number of outstanding Icache misses that were squashed
system.cpu0.fetch.ItlbSquashes                      9                       # Number of outstanding ITLB misses that were squashed
system.cpu0.fetch.rateDist::samples          30490957                       # Number of instructions fetched each cycle (Total)
system.cpu0.fetch.rateDist::mean             0.244610                       # Number of instructions fetched each cycle (Total)
system.cpu0.fetch.rateDist::stdev            1.246027                       # Number of instructions fetched each cycle (Total)
system.cpu0.fetch.rateDist::underflows              0      0.00%      0.00% # Number of instructions fetched each cycle (Total)
system.cpu0.fetch.rateDist::0                29021592     95.18%     95.18% # Number of instructions fetched each cycle (Total)
system.cpu0.fetch.rateDist::1                   12631      0.04%     95.22% # Number of instructions fetched each cycle (Total)
system.cpu0.fetch.rateDist::2                  566813      1.86%     97.08% # Number of instructions fetched each cycle (Total)
system.cpu0.fetch.rateDist::3                   18303      0.06%     97.14% # Number of instructions fetched each cycle (Total)
system.cpu0.fetch.rateDist::4                  105191      0.34%     97.49% # Number of instructions fetched each cycle (Total)
system.cpu0.fetch.rateDist::5                   43895      0.14%     97.63% # Number of instructions fetched each cycle (Total)
system.cpu0.fetch.rateDist::6                   73081      0.24%     97.87% # Number of instructions fetched each cycle (Total)
system.cpu0.fetch.rateDist::7                   17114      0.06%     97.93% # Number of instructions fetched each cycle (Total)
system.cpu0.fetch.rateDist::8                  632337      2.07%    100.00% # Number of instructions fetched each cycle (Total)
system.cpu0.fetch.rateDist::overflows               0      0.00%    100.00% # Number of instructions fetched each cycle (Total)
system.cpu0.fetch.rateDist::min_value               0                       # Number of instructions fetched each cycle (Total)
system.cpu0.fetch.rateDist::max_value               8                       # Number of instructions fetched each cycle (Total)
system.cpu0.fetch.rateDist::total            30490957                       # Number of instructions fetched each cycle (Total)
system.cpu0.fetch.branchRate                 0.042362                       # Number of branch fetches per cycle
system.cpu0.fetch.rate                       0.121637                       # Number of inst fetches per cycle
system.cpu0.decode.IdleCycles                  534640                       # Number of cycles decode is idle
system.cpu0.decode.BlockedCycles             28968170                       # Number of cycles decode is blocked
system.cpu0.decode.RunCycles                   665294                       # Number of cycles decode is running
system.cpu0.decode.UnblockCycles               272702                       # Number of cycles decode is unblocking
system.cpu0.decode.SquashCycles                 50151                       # Number of cycles decode is squashing
system.cpu0.decode.DecodedInsts               6109291                       # Number of instructions handled by decode
system.cpu0.rename.SquashCycles                 50151                       # Number of cycles rename is squashing
system.cpu0.rename.IdleCycles                  609192                       # Number of cycles rename is idle
system.cpu0.rename.BlockCycles               27821242                       # Number of cycles rename is blocking
system.cpu0.rename.serializeStallCycles          8605                       # count of cycles rename stalled for serializing inst
system.cpu0.rename.RunCycles                   791999                       # Number of cycles rename is running
system.cpu0.rename.UnblockCycles              1209768                       # Number of cycles rename is unblocking
system.cpu0.rename.RenamedInsts               5875399                       # Number of instructions processed by rename
system.cpu0.rename.ROBFullEvents                50910                       # Number of times rename has blocked due to ROB full
system.cpu0.rename.IQFullEvents                940633                       # Number of times rename has blocked due to IQ full
system.cpu0.rename.LQFullEvents                218791                       # Number of times rename has blocked due to LQ full
system.cpu0.rename.SQFullEvents                   729                       # Number of times rename has blocked due to SQ full
system.cpu0.rename.RenamedOperands            7004661                       # Number of destination operands rename has renamed
system.cpu0.rename.RenameLookups             16452564                       # Number of register rename lookups that rename has made
system.cpu0.rename.int_rename_lookups         7644398                       # Number of integer rename lookups
system.cpu0.rename.fp_rename_lookups            26204                       # Number of floating rename lookups
system.cpu0.rename.CommittedMaps              2592218                       # Number of HB maps that are committed
system.cpu0.rename.UndoneMaps                 4412321                       # Number of HB maps that are undone due to squashing
system.cpu0.rename.serializingInsts               171                       # count of serializing insts renamed
system.cpu0.rename.tempSerializingInsts           211                       # count of temporary serializing insts renamed
system.cpu0.rename.skidInsts                  1774567                       # count of insts added to the skid buffer
system.cpu0.memDep0.insertedLoads             1084124                       # Number of loads inserted to the mem dependence unit.
system.cpu0.memDep0.insertedStores              54951                       # Number of stores inserted to the mem dependence unit.
system.cpu0.memDep0.conflictingLoads             2136                       # Number of conflicting loads.
system.cpu0.memDep0.conflictingStores            3103                       # Number of conflicting stores.
system.cpu0.iq.iqInstsAdded                   5614259                       # Number of instructions added to the IQ (excludes non-spec)
system.cpu0.iq.iqNonSpecInstsAdded               2945                       # Number of non-speculative instructions added to the IQ
system.cpu0.iq.iqInstsIssued                  4008315                       # Number of instructions issued
system.cpu0.iq.iqSquashedInstsIssued             3598                       # Number of squashed instructions issued
system.cpu0.iq.iqSquashedInstsExamined        3452645                       # Number of squashed instructions iterated over during squash; mainly for profiling
system.cpu0.iq.iqSquashedOperandsExamined      7393085                       # Number of squashed operands that are examined and possibly removed from graph
system.cpu0.iq.iqSquashedNonSpecRemoved          2945                       # Number of squashed non-spec instructions that were removed
system.cpu0.iq.issued_per_cycle::samples     30490957                       # Number of insts issued each cycle
system.cpu0.iq.issued_per_cycle::mean        0.131459                       # Number of insts issued each cycle
system.cpu0.iq.issued_per_cycle::stdev       0.651160                       # Number of insts issued each cycle
system.cpu0.iq.issued_per_cycle::underflows            0      0.00%      0.00% # Number of insts issued each cycle
system.cpu0.iq.issued_per_cycle::0           28780137     94.39%     94.39% # Number of insts issued each cycle
system.cpu0.iq.issued_per_cycle::1             707103      2.32%     96.71% # Number of insts issued each cycle
system.cpu0.iq.issued_per_cycle::2             371692      1.22%     97.93% # Number of insts issued each cycle
system.cpu0.iq.issued_per_cycle::3             247783      0.81%     98.74% # Number of insts issued each cycle
system.cpu0.iq.issued_per_cycle::4             239127      0.78%     99.52% # Number of insts issued each cycle
system.cpu0.iq.issued_per_cycle::5              58928      0.19%     99.72% # Number of insts issued each cycle
system.cpu0.iq.issued_per_cycle::6              54371      0.18%     99.90% # Number of insts issued each cycle
system.cpu0.iq.issued_per_cycle::7              17423      0.06%     99.95% # Number of insts issued each cycle
system.cpu0.iq.issued_per_cycle::8              14393      0.05%    100.00% # Number of insts issued each cycle
system.cpu0.iq.issued_per_cycle::overflows            0      0.00%    100.00% # Number of insts issued each cycle
system.cpu0.iq.issued_per_cycle::min_value            0                       # Number of insts issued each cycle
system.cpu0.iq.issued_per_cycle::max_value            8                       # Number of insts issued each cycle
system.cpu0.iq.issued_per_cycle::total       30490957                       # Number of insts issued each cycle
system.cpu0.iq.fu_full::No_OpClass                  0      0.00%      0.00% # attempts to use FU when none available
system.cpu0.iq.fu_full::IntAlu                   6858     67.71%     67.71% # attempts to use FU when none available
system.cpu0.iq.fu_full::IntMult                     0      0.00%     67.71% # attempts to use FU when none available
system.cpu0.iq.fu_full::IntDiv                      0      0.00%     67.71% # attempts to use FU when none available
system.cpu0.iq.fu_full::FloatAdd                  751      7.41%     75.12% # attempts to use FU when none available
system.cpu0.iq.fu_full::FloatCmp                    0      0.00%     75.12% # attempts to use FU when none available
system.cpu0.iq.fu_full::FloatCvt                    0      0.00%     75.12% # attempts to use FU when none available
system.cpu0.iq.fu_full::FloatMult                   0      0.00%     75.12% # attempts to use FU when none available
system.cpu0.iq.fu_full::FloatMultAcc                0      0.00%     75.12% # attempts to use FU when none available
system.cpu0.iq.fu_full::FloatDiv                    0      0.00%     75.12% # attempts to use FU when none available
system.cpu0.iq.fu_full::FloatMisc                   0      0.00%     75.12% # attempts to use FU when none available
system.cpu0.iq.fu_full::FloatSqrt                   0      0.00%     75.12% # attempts to use FU when none available
system.cpu0.iq.fu_full::SimdAdd                     0      0.00%     75.12% # attempts to use FU when none available
system.cpu0.iq.fu_full::SimdAddAcc                  0      0.00%     75.12% # attempts to use FU when none available
system.cpu0.iq.fu_full::SimdAlu                     0      0.00%     75.12% # attempts to use FU when none available
system.cpu0.iq.fu_full::SimdCmp                     0      0.00%     75.12% # attempts to use FU when none available
system.cpu0.iq.fu_full::SimdCvt                     0      0.00%     75.12% # attempts to use FU when none available
system.cpu0.iq.fu_full::SimdMisc                    0      0.00%     75.12% # attempts to use FU when none available
system.cpu0.iq.fu_full::SimdMult                    0      0.00%     75.12% # attempts to use FU when none available
system.cpu0.iq.fu_full::SimdMultAcc                 0      0.00%     75.12% # attempts to use FU when none available
system.cpu0.iq.fu_full::SimdShift                   0      0.00%     75.12% # attempts to use FU when none available
system.cpu0.iq.fu_full::SimdShiftAcc                0      0.00%     75.12% # attempts to use FU when none available
system.cpu0.iq.fu_full::SimdSqrt                    0      0.00%     75.12% # attempts to use FU when none available
system.cpu0.iq.fu_full::SimdFloatAdd                0      0.00%     75.12% # attempts to use FU when none available
system.cpu0.iq.fu_full::SimdFloatAlu                0      0.00%     75.12% # attempts to use FU when none available
system.cpu0.iq.fu_full::SimdFloatCmp                0      0.00%     75.12% # attempts to use FU when none available
system.cpu0.iq.fu_full::SimdFloatCvt                0      0.00%     75.12% # attempts to use FU when none available
system.cpu0.iq.fu_full::SimdFloatDiv                0      0.00%     75.12% # attempts to use FU when none available
system.cpu0.iq.fu_full::SimdFloatMisc               0      0.00%     75.12% # attempts to use FU when none available
system.cpu0.iq.fu_full::SimdFloatMult               0      0.00%     75.12% # attempts to use FU when none available
system.cpu0.iq.fu_full::SimdFloatMultAcc            0      0.00%     75.12% # attempts to use FU when none available
system.cpu0.iq.fu_full::SimdFloatSqrt               0      0.00%     75.12% # attempts to use FU when none available
system.cpu0.iq.fu_full::MemRead                  2142     21.15%     96.27% # attempts to use FU when none available
system.cpu0.iq.fu_full::MemWrite                  185      1.83%     98.09% # attempts to use FU when none available
system.cpu0.iq.fu_full::FloatMemRead               97      0.96%     99.05% # attempts to use FU when none available
system.cpu0.iq.fu_full::FloatMemWrite              96      0.95%    100.00% # attempts to use FU when none available
system.cpu0.iq.fu_full::IprAccess                   0      0.00%    100.00% # attempts to use FU when none available
system.cpu0.iq.fu_full::InstPrefetch                0      0.00%    100.00% # attempts to use FU when none available
system.cpu0.iq.FU_type_0::No_OpClass            11452      0.29%      0.29% # Type of FU issued
system.cpu0.iq.FU_type_0::IntAlu              3305254     82.46%     82.75% # Type of FU issued
system.cpu0.iq.FU_type_0::IntMult                 698      0.02%     82.76% # Type of FU issued
system.cpu0.iq.FU_type_0::IntDiv                 6345      0.16%     82.92% # Type of FU issued
system.cpu0.iq.FU_type_0::FloatAdd               9473      0.24%     83.16% # Type of FU issued
system.cpu0.iq.FU_type_0::FloatCmp                  0      0.00%     83.16% # Type of FU issued
system.cpu0.iq.FU_type_0::FloatCvt                  0      0.00%     83.16% # Type of FU issued
system.cpu0.iq.FU_type_0::FloatMult                 0      0.00%     83.16% # Type of FU issued
system.cpu0.iq.FU_type_0::FloatMultAcc              0      0.00%     83.16% # Type of FU issued
system.cpu0.iq.FU_type_0::FloatDiv                  0      0.00%     83.16% # Type of FU issued
system.cpu0.iq.FU_type_0::FloatMisc                 0      0.00%     83.16% # Type of FU issued
system.cpu0.iq.FU_type_0::FloatSqrt                 0      0.00%     83.16% # Type of FU issued
system.cpu0.iq.FU_type_0::SimdAdd                   0      0.00%     83.16% # Type of FU issued
system.cpu0.iq.FU_type_0::SimdAddAcc                0      0.00%     83.16% # Type of FU issued
system.cpu0.iq.FU_type_0::SimdAlu                   0      0.00%     83.16% # Type of FU issued
system.cpu0.iq.FU_type_0::SimdCmp                   0      0.00%     83.16% # Type of FU issued
system.cpu0.iq.FU_type_0::SimdCvt                   0      0.00%     83.16% # Type of FU issued
system.cpu0.iq.FU_type_0::SimdMisc                  0      0.00%     83.16% # Type of FU issued
system.cpu0.iq.FU_type_0::SimdMult                  0      0.00%     83.16% # Type of FU issued
system.cpu0.iq.FU_type_0::SimdMultAcc               0      0.00%     83.16% # Type of FU issued
system.cpu0.iq.FU_type_0::SimdShift                 0      0.00%     83.16% # Type of FU issued
system.cpu0.iq.FU_type_0::SimdShiftAcc              0      0.00%     83.16% # Type of FU issued
system.cpu0.iq.FU_type_0::SimdSqrt                  0      0.00%     83.16% # Type of FU issued
system.cpu0.iq.FU_type_0::SimdFloatAdd              0      0.00%     83.16% # Type of FU issued
system.cpu0.iq.FU_type_0::SimdFloatAlu              0      0.00%     83.16% # Type of FU issued
system.cpu0.iq.FU_type_0::SimdFloatCmp              0      0.00%     83.16% # Type of FU issued
system.cpu0.iq.FU_type_0::SimdFloatCvt              0      0.00%     83.16% # Type of FU issued
system.cpu0.iq.FU_type_0::SimdFloatDiv              0      0.00%     83.16% # Type of FU issued
system.cpu0.iq.FU_type_0::SimdFloatMisc             0      0.00%     83.16% # Type of FU issued
system.cpu0.iq.FU_type_0::SimdFloatMult             0      0.00%     83.16% # Type of FU issued
system.cpu0.iq.FU_type_0::SimdFloatMultAcc            0      0.00%     83.16% # Type of FU issued
system.cpu0.iq.FU_type_0::SimdFloatSqrt             0      0.00%     83.16% # Type of FU issued
system.cpu0.iq.FU_type_0::MemRead              632316     15.78%     98.93% # Type of FU issued
system.cpu0.iq.FU_type_0::MemWrite              40573      1.01%     99.95% # Type of FU issued
system.cpu0.iq.FU_type_0::FloatMemRead           1856      0.05%     99.99% # Type of FU issued
system.cpu0.iq.FU_type_0::FloatMemWrite           348      0.01%    100.00% # Type of FU issued
system.cpu0.iq.FU_type_0::IprAccess                 0      0.00%    100.00% # Type of FU issued
system.cpu0.iq.FU_type_0::InstPrefetch              0      0.00%    100.00% # Type of FU issued
system.cpu0.iq.FU_type_0::total               4008315                       # Type of FU issued
system.cpu0.iq.rate                          0.131271                       # Inst issue rate
system.cpu0.iq.fu_busy_cnt                      10129                       # FU busy when requested
system.cpu0.iq.fu_busy_rate                  0.002527                       # FU busy rate (busy events/executed inst)
system.cpu0.iq.int_inst_queue_reads          38496688                       # Number of integer instruction queue reads
system.cpu0.iq.int_inst_queue_writes          9046673                       # Number of integer instruction queue writes
system.cpu0.iq.int_inst_queue_wakeup_accesses      3864760                       # Number of integer instruction queue wakeup accesses
system.cpu0.iq.fp_inst_queue_reads              24626                       # Number of floating instruction queue reads
system.cpu0.iq.fp_inst_queue_writes             23176                       # Number of floating instruction queue writes
system.cpu0.iq.fp_inst_queue_wakeup_accesses        10525                       # Number of floating instruction queue wakeup accesses
system.cpu0.iq.vec_inst_queue_reads                 0                       # Number of vector instruction queue reads
system.cpu0.iq.vec_inst_queue_writes                0                       # Number of vector instruction queue writes
system.cpu0.iq.vec_inst_queue_wakeup_accesses            0                       # Number of vector instruction queue wakeup accesses
system.cpu0.iq.int_alu_accesses               3994347                       # Number of integer alu accesses
system.cpu0.iq.fp_alu_accesses                  12645                       # Number of floating point alu accesses
system.cpu0.iq.vec_alu_accesses                     0                       # Number of vector alu accesses
system.cpu0.iew.lsq.thread0.forwLoads            3223                       # Number of loads that had data forwarded from stores
system.cpu0.iew.lsq.thread0.invAddrLoads            0                       # Number of loads ignored due to an invalid address
system.cpu0.iew.lsq.thread0.squashedLoads       668262                       # Number of loads squashed
system.cpu0.iew.lsq.thread0.ignoredResponses          103                       # Number of memory responses ignored because the instruction is squashed
system.cpu0.iew.lsq.thread0.memOrderViolation            1                       # Number of memory ordering violations
system.cpu0.iew.lsq.thread0.squashedStores        36245                       # Number of stores squashed
system.cpu0.iew.lsq.thread0.invAddrSwpfs            0                       # Number of software prefetches ignored due to an invalid address
system.cpu0.iew.lsq.thread0.blockedLoads            0                       # Number of blocked loads due to partial load-store forwarding
system.cpu0.iew.lsq.thread0.rescheduledLoads           34                       # Number of loads that were rescheduled
system.cpu0.iew.lsq.thread0.cacheBlocked         1176                       # Number of times an access to memory failed due to the cache being blocked
system.cpu0.iew.iewIdleCycles                       0                       # Number of cycles IEW is idle
system.cpu0.iew.iewSquashCycles                 50151                       # Number of cycles IEW is squashing
system.cpu0.iew.iewBlockCycles               26257161                       # Number of cycles IEW is blocking
system.cpu0.iew.iewUnblockCycles               263334                       # Number of cycles IEW is unblocking
system.cpu0.iew.iewDispatchedInsts            5617204                       # Number of instructions dispatched to IQ
system.cpu0.iew.iewDispSquashedInsts             2616                       # Number of squashed instructions skipped by dispatch
system.cpu0.iew.iewDispLoadInsts              1084124                       # Number of dispatched load instructions
system.cpu0.iew.iewDispStoreInsts               54951                       # Number of dispatched store instructions
system.cpu0.iew.iewDispNonSpecInsts              1093                       # Number of dispatched non-speculative instructions
system.cpu0.iew.iewIQFullEvents                 11579                       # Number of times the IQ has become full, causing a stall
system.cpu0.iew.iewLSQFullEvents                69028                       # Number of times the LSQ has become full, causing a stall
system.cpu0.iew.memOrderViolationEvents             1                       # Number of memory order violations
system.cpu0.iew.predictedTakenIncorrect         28551                       # Number of branches that were predicted taken incorrectly
system.cpu0.iew.predictedNotTakenIncorrect        26244                       # Number of branches that were predicted not taken incorrectly
system.cpu0.iew.branchMispredicts               54795                       # Number of branch mispredicts detected at execute
system.cpu0.iew.iewExecutedInsts              3951005                       # Number of executed instructions
system.cpu0.iew.iewExecLoadInsts               611879                       # Number of load instructions executed
system.cpu0.iew.iewExecSquashedInsts            57310                       # Number of squashed instructions skipped in execute
system.cpu0.iew.exec_swp                            0                       # number of swp insts executed
system.cpu0.iew.exec_nop                            0                       # number of nop insts executed
system.cpu0.iew.exec_refs                      650019                       # number of memory reference insts executed
system.cpu0.iew.exec_branches                  481176                       # Number of branches executed
system.cpu0.iew.exec_stores                     38140                       # Number of stores executed
system.cpu0.iew.exec_rate                    0.129394                       # Inst execution rate
system.cpu0.iew.wb_sent                       3885890                       # cumulative count of insts sent to commit
system.cpu0.iew.wb_count                      3875285                       # cumulative count of insts written-back
system.cpu0.iew.wb_producers                  2817069                       # num instructions producing a value
system.cpu0.iew.wb_consumers                  4469025                       # num instructions consuming a value
system.cpu0.iew.wb_rate                      0.126914                       # insts written-back per cycle
system.cpu0.iew.wb_fanout                    0.630354                       # average fanout of values written-back
system.cpu0.commit.commitSquashedInsts        3453307                       # The number of squashed insts skipped by commit
system.cpu0.commit.branchMispredicts            50151                       # The number of times a branch was mispredicted
system.cpu0.commit.committed_per_cycle::samples     30007791                       # Number of insts commited each cycle
system.cpu0.commit.committed_per_cycle::mean     0.072130                       # Number of insts commited each cycle
system.cpu0.commit.committed_per_cycle::stdev     0.479994                       # Number of insts commited each cycle
system.cpu0.commit.committed_per_cycle::underflows            0      0.00%      0.00% # Number of insts commited each cycle
system.cpu0.commit.committed_per_cycle::0     29030730     96.74%     96.74% # Number of insts commited each cycle
system.cpu0.commit.committed_per_cycle::1       459508      1.53%     98.28% # Number of insts commited each cycle
system.cpu0.commit.committed_per_cycle::2       108606      0.36%     98.64% # Number of insts commited each cycle
system.cpu0.commit.committed_per_cycle::3       301028      1.00%     99.64% # Number of insts commited each cycle
system.cpu0.commit.committed_per_cycle::4        48998      0.16%     99.80% # Number of insts commited each cycle
system.cpu0.commit.committed_per_cycle::5        24182      0.08%     99.88% # Number of insts commited each cycle
system.cpu0.commit.committed_per_cycle::6         3607      0.01%     99.90% # Number of insts commited each cycle
system.cpu0.commit.committed_per_cycle::7         2951      0.01%     99.91% # Number of insts commited each cycle
system.cpu0.commit.committed_per_cycle::8        28181      0.09%    100.00% # Number of insts commited each cycle
system.cpu0.commit.committed_per_cycle::overflows            0      0.00%    100.00% # Number of insts commited each cycle
system.cpu0.commit.committed_per_cycle::min_value            0                       # Number of insts commited each cycle
system.cpu0.commit.committed_per_cycle::max_value            8                       # Number of insts commited each cycle
system.cpu0.commit.committed_per_cycle::total     30007791                       # Number of insts commited each cycle
system.cpu0.commit.committedInsts             1083032                       # Number of instructions committed
system.cpu0.commit.committedOps               2164453                       # Number of ops (including micro ops) committed
system.cpu0.commit.swp_count                        0                       # Number of s/w prefetches committed
system.cpu0.commit.refs                        434546                       # Number of memory references committed
system.cpu0.commit.loads                       415840                       # Number of loads committed
system.cpu0.commit.membars                          0                       # Number of memory barriers committed
system.cpu0.commit.branches                    396108                       # Number of branches committed
system.cpu0.commit.vec_insts                        0                       # Number of committed Vector instructions.
system.cpu0.commit.fp_insts                      7536                       # Number of committed floating point instructions.
system.cpu0.commit.int_insts                  2156892                       # Number of committed integer instructions.
system.cpu0.commit.function_calls                3297                       # Number of function calls committed.
system.cpu0.commit.op_class_0::No_OpClass         2233      0.10%      0.10% # Class of committed instruction
system.cpu0.commit.op_class_0::IntAlu         1715743     79.27%     79.37% # Class of committed instruction
system.cpu0.commit.op_class_0::IntMult            131      0.01%     79.38% # Class of committed instruction
system.cpu0.commit.op_class_0::IntDiv            5368      0.25%     79.63% # Class of committed instruction
system.cpu0.commit.op_class_0::FloatAdd          6432      0.30%     79.92% # Class of committed instruction
system.cpu0.commit.op_class_0::FloatCmp             0      0.00%     79.92% # Class of committed instruction
system.cpu0.commit.op_class_0::FloatCvt             0      0.00%     79.92% # Class of committed instruction
system.cpu0.commit.op_class_0::FloatMult            0      0.00%     79.92% # Class of committed instruction
system.cpu0.commit.op_class_0::FloatMultAcc            0      0.00%     79.92% # Class of committed instruction
system.cpu0.commit.op_class_0::FloatDiv             0      0.00%     79.92% # Class of committed instruction
system.cpu0.commit.op_class_0::FloatMisc            0      0.00%     79.92% # Class of committed instruction
system.cpu0.commit.op_class_0::FloatSqrt            0      0.00%     79.92% # Class of committed instruction
system.cpu0.commit.op_class_0::SimdAdd              0      0.00%     79.92% # Class of committed instruction
system.cpu0.commit.op_class_0::SimdAddAcc            0      0.00%     79.92% # Class of committed instruction
system.cpu0.commit.op_class_0::SimdAlu              0      0.00%     79.92% # Class of committed instruction
system.cpu0.commit.op_class_0::SimdCmp              0      0.00%     79.92% # Class of committed instruction
system.cpu0.commit.op_class_0::SimdCvt              0      0.00%     79.92% # Class of committed instruction
system.cpu0.commit.op_class_0::SimdMisc             0      0.00%     79.92% # Class of committed instruction
system.cpu0.commit.op_class_0::SimdMult             0      0.00%     79.92% # Class of committed instruction
system.cpu0.commit.op_class_0::SimdMultAcc            0      0.00%     79.92% # Class of committed instruction
system.cpu0.commit.op_class_0::SimdShift            0      0.00%     79.92% # Class of committed instruction
system.cpu0.commit.op_class_0::SimdShiftAcc            0      0.00%     79.92% # Class of committed instruction
system.cpu0.commit.op_class_0::SimdSqrt             0      0.00%     79.92% # Class of committed instruction
system.cpu0.commit.op_class_0::SimdFloatAdd            0      0.00%     79.92% # Class of committed instruction
system.cpu0.commit.op_class_0::SimdFloatAlu            0      0.00%     79.92% # Class of committed instruction
system.cpu0.commit.op_class_0::SimdFloatCmp            0      0.00%     79.92% # Class of committed instruction
system.cpu0.commit.op_class_0::SimdFloatCvt            0      0.00%     79.92% # Class of committed instruction
system.cpu0.commit.op_class_0::SimdFloatDiv            0      0.00%     79.92% # Class of committed instruction
system.cpu0.commit.op_class_0::SimdFloatMisc            0      0.00%     79.92% # Class of committed instruction
system.cpu0.commit.op_class_0::SimdFloatMult            0      0.00%     79.92% # Class of committed instruction
system.cpu0.commit.op_class_0::SimdFloatMultAcc            0      0.00%     79.92% # Class of committed instruction
system.cpu0.commit.op_class_0::SimdFloatSqrt            0      0.00%     79.92% # Class of committed instruction
system.cpu0.commit.op_class_0::MemRead         414736     19.16%     99.08% # Class of committed instruction
system.cpu0.commit.op_class_0::MemWrite         18706      0.86%     99.95% # Class of committed instruction
system.cpu0.commit.op_class_0::FloatMemRead         1104      0.05%    100.00% # Class of committed instruction
system.cpu0.commit.op_class_0::FloatMemWrite            0      0.00%    100.00% # Class of committed instruction
system.cpu0.commit.op_class_0::IprAccess            0      0.00%    100.00% # Class of committed instruction
system.cpu0.commit.op_class_0::InstPrefetch            0      0.00%    100.00% # Class of committed instruction
system.cpu0.commit.op_class_0::total          2164453                       # Class of committed instruction
system.cpu0.commit.bw_lim_events                28181                       # number cycles where commit BW limit reached
system.cpu0.rob.rob_reads                    35597370                       # The number of ROB reads
system.cpu0.rob.rob_writes                   11719735                       # The number of ROB writes
system.cpu0.timesIdled                            314                       # Number of times that the entire CPU went into an idle state and unscheduled itself
system.cpu0.idleCycles                          43731                       # Total number of cycles that the CPU has spent unscheduled due to idling
system.cpu0.committedInsts                    1083032                       # Number of Instructions Simulated
system.cpu0.committedOps                      2164453                       # Number of Ops (including micro ops) Simulated
system.cpu0.cpi                             28.193708                       # CPI: Cycles Per Instruction
system.cpu0.cpi_total                       28.193708                       # CPI: Total CPI of All Threads
system.cpu0.ipc                              0.035469                       # IPC: Instructions Per Cycle
system.cpu0.ipc_total                        0.035469                       # IPC: Total IPC of All Threads
system.cpu0.int_regfile_reads                 3902454                       # number of integer regfile reads
system.cpu0.int_regfile_writes                3359301                       # number of integer regfile writes
system.cpu0.fp_regfile_reads                    18707                       # number of floating regfile reads
system.cpu0.fp_regfile_writes                    9260                       # number of floating regfile writes
system.cpu0.cc_regfile_reads                  2548951                       # number of cc regfile reads
system.cpu0.cc_regfile_writes                 1059546                       # number of cc regfile writes
system.cpu0.misc_regfile_reads                2110814                       # number of misc regfile reads
system.cpu0.dcache.tags.pwrStateResidencyTicks::UNDEFINED  15267344125                       # Cumulative time (in ticks) in various power states
system.cpu0.dcache.tags.replacements           221985                       # number of replacements
system.cpu0.dcache.tags.tagsinuse                1024                       # Cycle average of tags in use
system.cpu0.dcache.tags.total_refs             232373                       # Total number of references to valid blocks.
system.cpu0.dcache.tags.sampled_refs           221985                       # Sample count of references to valid blocks.
system.cpu0.dcache.tags.avg_refs             1.046796                       # Average number of references to valid blocks.
system.cpu0.dcache.tags.warmup_cycle                0                       # Cycle when the warmup percentage was hit.
system.cpu0.dcache.tags.occ_blocks::cpu0.data         1024                       # Average occupied blocks per requestor
system.cpu0.dcache.tags.occ_percent::cpu0.data            1                       # Average percentage of cache occupancy
system.cpu0.dcache.tags.occ_percent::total            1                       # Average percentage of cache occupancy
system.cpu0.dcache.tags.occ_task_id_blocks::1024         1024                       # Occupied blocks per task id
system.cpu0.dcache.tags.age_task_id_blocks_1024::0          138                       # Occupied blocks per task id
system.cpu0.dcache.tags.age_task_id_blocks_1024::1          785                       # Occupied blocks per task id
system.cpu0.dcache.tags.age_task_id_blocks_1024::2          101                       # Occupied blocks per task id
system.cpu0.dcache.tags.occ_task_id_percent::1024            1                       # Percentage of cache occupancy per task id
system.cpu0.dcache.tags.tag_accesses          2720389                       # Number of tag accesses
system.cpu0.dcache.tags.data_accesses         2720389                       # Number of data accesses
system.cpu0.dcache.pwrStateResidencyTicks::UNDEFINED  15267344125                       # Cumulative time (in ticks) in various power states
system.cpu0.dcache.ReadReq_hits::cpu0.data       214687                       # number of ReadReq hits
system.cpu0.dcache.ReadReq_hits::total         214687                       # number of ReadReq hits
system.cpu0.dcache.WriteReq_hits::cpu0.data        17963                       # number of WriteReq hits
system.cpu0.dcache.WriteReq_hits::total         17963                       # number of WriteReq hits
system.cpu0.dcache.demand_hits::cpu0.data       232650                       # number of demand (read+write) hits
system.cpu0.dcache.demand_hits::total          232650                       # number of demand (read+write) hits
system.cpu0.dcache.overall_hits::cpu0.data       232650                       # number of overall hits
system.cpu0.dcache.overall_hits::total         232650                       # number of overall hits
system.cpu0.dcache.ReadReq_misses::cpu0.data       391200                       # number of ReadReq misses
system.cpu0.dcache.ReadReq_misses::total       391200                       # number of ReadReq misses
system.cpu0.dcache.WriteReq_misses::cpu0.data          751                       # number of WriteReq misses
system.cpu0.dcache.WriteReq_misses::total          751                       # number of WriteReq misses
system.cpu0.dcache.demand_misses::cpu0.data       391951                       # number of demand (read+write) misses
system.cpu0.dcache.demand_misses::total        391951                       # number of demand (read+write) misses
system.cpu0.dcache.overall_misses::cpu0.data       391951                       # number of overall misses
system.cpu0.dcache.overall_misses::total       391951                       # number of overall misses
system.cpu0.dcache.ReadReq_miss_latency::cpu0.data  34298379500                       # number of ReadReq miss cycles
system.cpu0.dcache.ReadReq_miss_latency::total  34298379500                       # number of ReadReq miss cycles
system.cpu0.dcache.WriteReq_miss_latency::cpu0.data     26922498                       # number of WriteReq miss cycles
system.cpu0.dcache.WriteReq_miss_latency::total     26922498                       # number of WriteReq miss cycles
system.cpu0.dcache.demand_miss_latency::cpu0.data  34325301998                       # number of demand (read+write) miss cycles
system.cpu0.dcache.demand_miss_latency::total  34325301998                       # number of demand (read+write) miss cycles
system.cpu0.dcache.overall_miss_latency::cpu0.data  34325301998                       # number of overall miss cycles
system.cpu0.dcache.overall_miss_latency::total  34325301998                       # number of overall miss cycles
system.cpu0.dcache.ReadReq_accesses::cpu0.data       605887                       # number of ReadReq accesses(hits+misses)
system.cpu0.dcache.ReadReq_accesses::total       605887                       # number of ReadReq accesses(hits+misses)
system.cpu0.dcache.WriteReq_accesses::cpu0.data        18714                       # number of WriteReq accesses(hits+misses)
system.cpu0.dcache.WriteReq_accesses::total        18714                       # number of WriteReq accesses(hits+misses)
system.cpu0.dcache.demand_accesses::cpu0.data       624601                       # number of demand (read+write) accesses
system.cpu0.dcache.demand_accesses::total       624601                       # number of demand (read+write) accesses
system.cpu0.dcache.overall_accesses::cpu0.data       624601                       # number of overall (read+write) accesses
system.cpu0.dcache.overall_accesses::total       624601                       # number of overall (read+write) accesses
system.cpu0.dcache.ReadReq_miss_rate::cpu0.data     0.645665                       # miss rate for ReadReq accesses
system.cpu0.dcache.ReadReq_miss_rate::total     0.645665                       # miss rate for ReadReq accesses
system.cpu0.dcache.WriteReq_miss_rate::cpu0.data     0.040130                       # miss rate for WriteReq accesses
system.cpu0.dcache.WriteReq_miss_rate::total     0.040130                       # miss rate for WriteReq accesses
system.cpu0.dcache.demand_miss_rate::cpu0.data     0.627522                       # miss rate for demand accesses
system.cpu0.dcache.demand_miss_rate::total     0.627522                       # miss rate for demand accesses
system.cpu0.dcache.overall_miss_rate::cpu0.data     0.627522                       # miss rate for overall accesses
system.cpu0.dcache.overall_miss_rate::total     0.627522                       # miss rate for overall accesses
system.cpu0.dcache.ReadReq_avg_miss_latency::cpu0.data 87674.794223                       # average ReadReq miss latency
system.cpu0.dcache.ReadReq_avg_miss_latency::total 87674.794223                       # average ReadReq miss latency
system.cpu0.dcache.WriteReq_avg_miss_latency::cpu0.data 35848.865513                       # average WriteReq miss latency
system.cpu0.dcache.WriteReq_avg_miss_latency::total 35848.865513                       # average WriteReq miss latency
system.cpu0.dcache.demand_avg_miss_latency::cpu0.data 87575.492850                       # average overall miss latency
system.cpu0.dcache.demand_avg_miss_latency::total 87575.492850                       # average overall miss latency
[...]
system.l2.tags.tag_accesses                   3747210                       # Number of tag accesses
system.l2.tags.data_accesses                  3747210                       # Number of data accesses
system.l2.pwrStateResidencyTicks::UNDEFINED  15267344125                       # Cumulative time (in ticks) in various power states
system.l2.WritebackDirty_hits::writebacks         1892                       # number of WritebackDirty hits
system.l2.WritebackDirty_hits::total             1892                       # number of WritebackDirty hits
system.l2.ReadExReq_hits::cpu0.data               566                       # number of ReadExReq hits
system.l2.ReadExReq_hits::total                   566                       # number of ReadExReq hits
system.l2.ReadSharedReq_hits::cpu0.data         23717                       # number of ReadSharedReq hits
system.l2.ReadSharedReq_hits::total             23717                       # number of ReadSharedReq hits
system.l2.demand_hits::cpu0.data                24283                       # number of demand (read+write) hits
system.l2.demand_hits::total                    24283                       # number of demand (read+write) hits
system.l2.overall_hits::cpu0.data               24283                       # number of overall hits
system.l2.overall_hits::total                   24283                       # number of overall hits
system.l2.ReadExReq_misses::cpu0.data             181                       # number of ReadExReq misses
system.l2.ReadExReq_misses::total                 181                       # number of ReadExReq misses
system.l2.ReadSharedReq_misses::cpu0.data       197523                       # number of ReadSharedReq misses
system.l2.ReadSharedReq_misses::total          197523                       # number of ReadSharedReq misses
system.l2.demand_misses::cpu0.data             197704                       # number of demand (read+write) misses
system.l2.demand_misses::total                 197704                       # number of demand (read+write) misses
system.l2.overall_misses::cpu0.data            197704                       # number of overall misses
system.l2.overall_misses::total                197704                       # number of overall misses
system.l2.ReadExReq_miss_latency::cpu0.data     18586000                       # number of ReadExReq miss cycles
system.l2.ReadExReq_miss_latency::total      18586000                       # number of ReadExReq miss cycles
system.l2.ReadSharedReq_miss_latency::cpu0.data  18748448000                       # number of ReadSharedReq miss cycles
system.l2.ReadSharedReq_miss_latency::total  18748448000                       # number of ReadSharedReq miss cycles
system.l2.demand_miss_latency::cpu0.data  18767034000                       # number of demand (read+write) miss cycles
system.l2.demand_miss_latency::total      18767034000                       # number of demand (read+write) miss cycles
system.l2.overall_miss_latency::cpu0.data  18767034000                       # number of overall miss cycles
system.l2.overall_miss_latency::total     18767034000                       # number of overall miss cycles
system.l2.WritebackDirty_accesses::writebacks         1892                       # number of WritebackDirty accesses(hits+misses)
system.l2.WritebackDirty_accesses::total         1892                       # number of WritebackDirty accesses(hits+misses)
system.l2.ReadExReq_accesses::cpu0.data           747                       # number of ReadExReq accesses(hits+misses)
system.l2.ReadExReq_accesses::total               747                       # number of ReadExReq accesses(hits+misses)
system.l2.ReadSharedReq_accesses::cpu0.data       221240                       # number of ReadSharedReq accesses(hits+misses)
system.l2.ReadSharedReq_accesses::total        221240                       # number of ReadSharedReq accesses(hits+misses)
system.l2.demand_accesses::cpu0.data           221987                       # number of demand (read+write) accesses
system.l2.demand_accesses::total               221987                       # number of demand (read+write) accesses
system.l2.overall_accesses::cpu0.data          221987                       # number of overall (read+write) accesses
system.l2.overall_accesses::total              221987                       # number of overall (read+write) accesses
system.l2.ReadExReq_miss_rate::cpu0.data     0.242303                       # miss rate for ReadExReq accesses
system.l2.ReadExReq_miss_rate::total         0.242303                       # miss rate for ReadExReq accesses
system.l2.ReadSharedReq_miss_rate::cpu0.data     0.892800                       # miss rate for ReadSharedReq accesses
system.l2.ReadSharedReq_miss_rate::total     0.892800                       # miss rate for ReadSharedReq accesses
system.l2.demand_miss_rate::cpu0.data        0.890611                       # miss rate for demand accesses
system.l2.demand_miss_rate::total            0.890611                       # miss rate for demand accesses
system.l2.overall_miss_rate::cpu0.data       0.890611                       # miss rate for overall accesses
system.l2.overall_miss_rate::total           0.890611                       # miss rate for overall accesses
system.l2.ReadExReq_avg_miss_latency::cpu0.data 102685.082873                       # average ReadExReq miss latency
system.l2.ReadExReq_avg_miss_latency::total 102685.082873                       # average ReadExReq miss latency
system.l2.ReadSharedReq_avg_miss_latency::cpu0.data 94917.796915                       # average ReadSharedReq miss latency
system.l2.ReadSharedReq_avg_miss_latency::total 94917.796915                       # average ReadSharedReq miss latency
system.l2.demand_avg_miss_latency::cpu0.data 94924.907943                       # average overall miss latency
system.l2.demand_avg_miss_latency::total 94924.907943                       # average overall miss latency
system.l2.overall_avg_miss_latency::cpu0.data 94924.907943                       # average overall miss latency
system.l2.overall_avg_miss_latency::total 94924.907943                       # average overall miss latency
system.l2.blocked_cycles::no_mshrs                  0                       # number of cycles access was blocked
system.l2.blocked_cycles::no_targets                0                       # number of cycles access was blocked
system.l2.blocked::no_mshrs                         0                       # number of cycles access was blocked
system.l2.blocked::no_targets                       0                       # number of cycles access was blocked
system.l2.avg_blocked_cycles::no_mshrs            nan                       # average number of cycles each access was blocked
system.l2.avg_blocked_cycles::no_targets          nan                       # average number of cycles each access was blocked
system.l2.writebacks::writebacks                  296                       # number of writebacks
system.l2.writebacks::total                       296                       # number of writebacks
system.l2.ReadExReq_mshr_misses::cpu0.data          181                       # number of ReadExReq MSHR misses
system.l2.ReadExReq_mshr_misses::total            181                       # number of ReadExReq MSHR misses
system.l2.ReadSharedReq_mshr_misses::cpu0.data       197523                       # number of ReadSharedReq MSHR misses
system.l2.ReadSharedReq_mshr_misses::total       197523                       # number of ReadSharedReq MSHR misses
system.l2.demand_mshr_misses::cpu0.data        197704                       # number of demand (read+write) MSHR misses
system.l2.demand_mshr_misses::total            197704                       # number of demand (read+write) MSHR misses
system.l2.overall_mshr_misses::cpu0.data       197704                       # number of overall MSHR misses
system.l2.overall_mshr_misses::total           197704                       # number of overall MSHR misses
system.l2.ReadExReq_mshr_miss_latency::cpu0.data     16776000                       # number of ReadExReq MSHR miss cycles
system.l2.ReadExReq_mshr_miss_latency::total     16776000                       # number of ReadExReq MSHR miss cycles
system.l2.ReadSharedReq_mshr_miss_latency::cpu0.data  16773238000                       # number of ReadSharedReq MSHR miss cycles
system.l2.ReadSharedReq_mshr_miss_latency::total  16773238000                       # number of ReadSharedReq MSHR miss cycles
system.l2.demand_mshr_miss_latency::cpu0.data  16790014000                       # number of demand (read+write) MSHR miss cycles
system.l2.demand_mshr_miss_latency::total  16790014000                       # number of demand (read+write) MSHR miss cycles
system.l2.overall_mshr_miss_latency::cpu0.data  16790014000                       # number of overall MSHR miss cycles
system.l2.overall_mshr_miss_latency::total  16790014000                       # number of overall MSHR miss cycles
system.l2.ReadExReq_mshr_miss_rate::cpu0.data     0.242303                       # mshr miss rate for ReadExReq accesses
system.l2.ReadExReq_mshr_miss_rate::total     0.242303                       # mshr miss rate for ReadExReq accesses
system.l2.ReadSharedReq_mshr_miss_rate::cpu0.data     0.892800                       # mshr miss rate for ReadSharedReq accesses
system.l2.ReadSharedReq_mshr_miss_rate::total     0.892800                       # mshr miss rate for ReadSharedReq accesses
system.l2.demand_mshr_miss_rate::cpu0.data     0.890611                       # mshr miss rate for demand accesses
system.l2.demand_mshr_miss_rate::total       0.890611                       # mshr miss rate for demand accesses
system.l2.overall_mshr_miss_rate::cpu0.data     0.890611                       # mshr miss rate for overall accesses
system.l2.overall_mshr_miss_rate::total      0.890611                       # mshr miss rate for overall accesses
system.l2.ReadExReq_avg_mshr_miss_latency::cpu0.data 92685.082873                       # average ReadExReq mshr miss latency
system.l2.ReadExReq_avg_mshr_miss_latency::total 92685.082873                       # average ReadExReq mshr miss latency
system.l2.ReadSharedReq_avg_mshr_miss_latency::cpu0.data 84917.898169                       # average ReadSharedReq mshr miss latency
system.l2.ReadSharedReq_avg_mshr_miss_latency::total 84917.898169                       # average ReadSharedReq mshr miss latency
system.l2.demand_avg_mshr_miss_latency::cpu0.data 84925.009105                       # average overall mshr miss latency
system.l2.demand_avg_mshr_miss_latency::total 84925.009105                       # average overall mshr miss latency
system.l2.overall_avg_mshr_miss_latency::cpu0.data 84925.009105                       # average overall mshr miss latency
system.l2.overall_avg_mshr_miss_latency::total 84925.009105                       # average overall mshr miss latency
system.membus.snoop_filter.tot_requests        395400                       # Total number of requests made to the snoop filter.
system.membus.snoop_filter.hit_single_requests       197703                       # Number of requests hitting in the snoop filter with a single holder of the requested data.
system.membus.snoop_filter.hit_multi_requests            0                       # Number of requests hitting in the snoop filter with multiple (>1) holders of the requested data.
system.membus.snoop_filter.tot_snoops               0                       # Total number of snoops made to the snoop filter.
system.membus.snoop_filter.hit_single_snoops            0                       # Number of snoops hitting in the snoop filter with a single holder of the requested data.
system.membus.snoop_filter.hit_multi_snoops            0                       # Number of snoops hitting in the snoop filter with multiple (>1) holders of the requested data.
system.membus.pwrStateResidencyTicks::UNDEFINED  15267344125                       # Cumulative time (in ticks) in various power states
system.membus.trans_dist::ReadResp             197521                       # Transaction distribution
system.membus.trans_dist::WritebackDirty          296                       # Transaction distribution
system.membus.trans_dist::CleanEvict           197400                       # Transaction distribution
system.membus.trans_dist::ReadExReq               181                       # Transaction distribution
system.membus.trans_dist::ReadExResp              181                       # Transaction distribution
system.membus.trans_dist::ReadSharedReq        197523                       # Transaction distribution
system.membus.pkt_count_system.l2.mem_side::system.mem_ctrls.port       593102                       # Packet count per connected master and slave (bytes)
system.membus.pkt_count_system.l2.mem_side::total       593102                       # Packet count per connected master and slave (bytes)
system.membus.pkt_count::total                 593102                       # Packet count per connected master and slave (bytes)
system.membus.pkt_size_system.l2.mem_side::system.mem_ctrls.port     12671872                       # Cumulative packet size per connected master and slave (bytes)
system.membus.pkt_size_system.l2.mem_side::total     12671872                       # Cumulative packet size per connected master and slave (bytes)
system.membus.pkt_size::total                12671872                       # Cumulative packet size per connected master and slave (bytes)
system.membus.snoops                                0                       # Total snoops (count)
system.membus.snoopTraffic                          0                       # Total snoop traffic (bytes)
system.membus.snoop_fanout::samples            197704                       # Request fanout histogram
system.membus.snoop_fanout::mean                    0                       # Request fanout histogram
system.membus.snoop_fanout::stdev                   0                       # Request fanout histogram
system.membus.snoop_fanout::underflows              0      0.00%      0.00% # Request fanout histogram
system.membus.snoop_fanout::0                  197704    100.00%    100.00% # Request fanout histogram
system.membus.snoop_fanout::1                       0      0.00%    100.00% # Request fanout histogram
system.membus.snoop_fanout::overflows               0      0.00%    100.00% # Request fanout histogram
system.membus.snoop_fanout::min_value               0                       # Request fanout histogram
system.membus.snoop_fanout::max_value               0                       # Request fanout histogram
system.membus.snoop_fanout::total              197704                       # Request fanout histogram
system.membus.reqLayer4.occupancy           467020500                       # Layer occupancy (ticks)
system.membus.reqLayer4.utilization               3.1                       # Layer utilization (%)
system.membus.respLayer1.occupancy         1067507250                       # Layer occupancy (ticks)
system.membus.respLayer1.utilization              7.0                       # Layer utilization (%)
system.tol2bus.snoop_filter.tot_requests       443972                       # Total number of requests made to the snoop filter.
system.tol2bus.snoop_filter.hit_single_requests       221987                       # Number of requests hitting in the snoop filter with a single holder of the requested data.
system.tol2bus.snoop_filter.hit_multi_requests          512                       # Number of requests hitting in the snoop filter with multiple (>1) holders of the requested data.
system.tol2bus.snoop_filter.tot_snoops             10                       # Total number of snoops made to the snoop filter.
system.tol2bus.snoop_filter.hit_single_snoops           10                       # Number of snoops hitting in the snoop filter with a single holder of the requested data.
system.tol2bus.snoop_filter.hit_multi_snoops            0                       # Number of snoops hitting in the snoop filter with multiple (>1) holders of the requested data.
system.tol2bus.pwrStateResidencyTicks::UNDEFINED  15267344125                       # Cumulative time (in ticks) in various power states
system.tol2bus.trans_dist::ReadResp            221238                       # Transaction distribution
system.tol2bus.trans_dist::WritebackDirty         2188                       # Transaction distribution
system.tol2bus.trans_dist::CleanEvict          417503                       # Transaction distribution
system.tol2bus.trans_dist::ReadExReq              747                       # Transaction distribution
system.tol2bus.trans_dist::ReadExResp             747                       # Transaction distribution
system.tol2bus.trans_dist::ReadSharedReq       221240                       # Transaction distribution
system.tol2bus.pkt_count_system.cpu0.dcache.mem_side::system.l2.cpu_side       665957                       # Packet count per connected master and slave (bytes)
system.tol2bus.pkt_count::total                665957                       # Packet count per connected master and slave (bytes)
system.tol2bus.pkt_size_system.cpu0.dcache.mem_side::system.l2.cpu_side     14328128                       # Cumulative packet size per connected master and slave (bytes)
system.tol2bus.pkt_size::total               14328128                       # Cumulative packet size per connected master and slave (bytes)
system.tol2bus.snoops                          197706                       # Total snoops (count)
system.tol2bus.snoopTraffic                     18944                       # Total snoop traffic (bytes)
system.tol2bus.snoop_fanout::samples           419693                       # Request fanout histogram
system.tol2bus.snoop_fanout::mean            0.001249                       # Request fanout histogram
system.tol2bus.snoop_fanout::stdev           0.035313                       # Request fanout histogram
system.tol2bus.snoop_fanout::underflows             0      0.00%      0.00% # Request fanout histogram
system.tol2bus.snoop_fanout::0                 419169     99.88%     99.88% # Request fanout histogram
system.tol2bus.snoop_fanout::1                    524      0.12%    100.00% # Request fanout histogram
system.tol2bus.snoop_fanout::2                      0      0.00%    100.00% # Request fanout histogram
system.tol2bus.snoop_fanout::3                      0      0.00%    100.00% # Request fanout histogram
system.tol2bus.snoop_fanout::4                      0      0.00%    100.00% # Request fanout histogram
system.tol2bus.snoop_fanout::5                      0      0.00%    100.00% # Request fanout histogram
system.tol2bus.snoop_fanout::6                      0      0.00%    100.00% # Request fanout histogram
system.tol2bus.snoop_fanout::7                      0      0.00%    100.00% # Request fanout histogram
system.tol2bus.snoop_fanout::8                      0      0.00%    100.00% # Request fanout histogram
system.tol2bus.snoop_fanout::overflows              0      0.00%    100.00% # Request fanout histogram
system.tol2bus.snoop_fanout::min_value              0                       # Request fanout histogram
system.tol2bus.snoop_fanout::max_value              1                       # Request fanout histogram
system.tol2bus.snoop_fanout::total             419693                       # Request fanout histogram
system.tol2bus.reqLayer0.occupancy          223878000                       # Layer occupancy (ticks)
system.tol2bus.reqLayer0.utilization              1.5                       # Layer utilization (%)
system.tol2bus.respLayer1.occupancy         332977500                       # Layer occupancy (ticks)
system.tol2bus.respLayer1.utilization             2.2                       # Layer utilization (%)

---------- End Simulation Statistics   ----------
