
---------- Begin Simulation Statistics ----------
sim_seconds                                  0.015267                       # Number of seconds simulated
sim_ticks                                 15267344125                       # Number of ticks simulated
final_tick                               5160362314250                       # Number of ticks from beginning of simulation (restored from checkpoints and never reset)
sim_freq                                 1000000000000                       # Frequency of simulated ticks
host_inst_rate                              122054460                       # Simulator instruction rate (inst/s)
host_op_rate                                226946111                       # Simulator op (including micro ops) rate (op/s)
host_tick_rate                              319201215                       # Simulator tick rate (ticks/s)
host_mem_usage                                2332640                       # Number of bytes of host memory used
host_seconds                                    47.83                       # Real time elapsed on the host
sim_insts                                  5837843528                       # Number of instructions simulated
sim_ops                                   10854795155                       # Number of ops (including micro ops) simulated
system.voltage_domain.voltage                       1                       # Voltage in Volts
system.clk_domain.clock                          1000                       # Clock period in ticks
system.mem_ctrls.pwrStateResidencyTicks::UNDEFINED  15267344125                       # Cumulative time (in ticks) in various power states
system.mem_ctrls.bytes_read::cpu0.data       11902976                       # Number of bytes read from this memory
system.mem_ctrls.bytes_read::total           11902976                       # Number of bytes read from this memory
system.mem_ctrls.bytes_written::writebacks        25664                       # Number of bytes written to this memory
system.mem_ctrls.bytes_written::total           25664                       # Number of bytes written to this memory
system.mem_ctrls.num_reads::cpu0.data          185984                       # Number of read requests responded to by this memory
system.mem_ctrls.num_reads::total              185984                       # Number of read requests responded to by this memory
system.mem_ctrls.num_writes::writebacks           401                       # Number of write requests responded to by this memory
system.mem_ctrls.num_writes::total                401                       # Number of write requests responded to by this memory
system.mem_ctrls.bw_read::cpu0.data         779636321                       # Total read bandwidth from this memory (bytes/s)
system.mem_ctrls.bw_read::total             779636321                       # Total read bandwidth from this memory (bytes/s)
system.mem_ctrls.bw_write::writebacks         1680973                       # Write bandwidth from this memory (bytes/s)
system.mem_ctrls.bw_write::total              1680973                       # Write bandwidth from this memory (bytes/s)
system.mem_ctrls.bw_total::writebacks         1680973                       # Total bandwidth to/from this memory (bytes/s)
system.mem_ctrls.bw_total::cpu0.data        779636321                       # Total bandwidth to/from this memory (bytes/s)
system.mem_ctrls.bw_total::total            781317294                       # Total bandwidth to/from this memory (bytes/s)
system.mem_ctrls.readReqs                      185984                       # Number of read requests accepted
system.mem_ctrls.writeReqs                        401                       # Number of write requests accepted
system.mem_ctrls.readBursts                    185984                       # Number of DRAM read bursts, including those serviced by the write queue
system.mem_ctrls.writeBursts                      401                       # Number of DRAM write bursts, including those merged in the write queue
system.mem_ctrls.bytesReadDRAM               11899584                       # Total number of bytes read from DRAM
system.mem_ctrls.bytesReadWrQ                    3392                       # Total number of bytes read from write queue
system.mem_ctrls.bytesWritten                   25728                       # Total number of bytes written to DRAM
system.mem_ctrls.bytesReadSys                11902976                       # Total read bytes from the system interface side
system.mem_ctrls.bytesWrittenSys                25664                       # Total written bytes from the system interface side
system.mem_ctrls.servicedByWrQ                     53                       # Number of DRAM read bursts serviced by the write queue
system.mem_ctrls.mergedWrBursts                     0                       # Number of DRAM write bursts merged with an existing one
system.mem_ctrls.neitherReadNorWriteReqs            0                       # Number of requests that are neither read nor write
system.mem_ctrls.perBankRdBursts::0             11696                       # Per bank write bursts
system.mem_ctrls.perBankRdBursts::1             11444                       # Per bank write bursts
system.mem_ctrls.perBankRdBursts::2             11491                       # Per bank write bursts
system.mem_ctrls.perBankRdBursts::3             11468                       # Per bank write bursts
system.mem_ctrls.perBankRdBursts::4             11510                       # Per bank write bursts
system.mem_ctrls.perBankRdBursts::5             11400                       # Per bank write bursts
system.mem_ctrls.perBankRdBursts::6             11414                       # Per bank write bursts
system.mem_ctrls.perBankRdBursts::7             11566                       # Per bank write bursts
system.mem_ctrls.perBankRdBursts::8             11439                       # Per bank write bursts
system.mem_ctrls.perBankRdBursts::9             11633                       # Per bank write bursts
system.mem_ctrls.perBankRdBursts::10            11150                       # Per bank write bursts
system.mem_ctrls.perBankRdBursts::11            11574                       # Per bank write bursts
system.mem_ctrls.perBankRdBursts::12            12583                       # Per bank write bursts
system.mem_ctrls.perBankRdBursts::13            12070                       # Per bank write bursts
system.mem_ctrls.perBankRdBursts::14            11769                       # Per bank write bursts
system.mem_ctrls.perBankRdBursts::15            11724                       # Per bank write bursts
system.mem_ctrls.perBankWrBursts::0                 0                       # Per bank write bursts
system.mem_ctrls.perBankWrBursts::1                 0                       # Per bank write bursts
system.mem_ctrls.perBankWrBursts::2                 0                       # Per bank write bursts
system.mem_ctrls.perBankWrBursts::3                 0                       # Per bank write bursts
system.mem_ctrls.perBankWrBursts::4                 0                       # Per bank write bursts
system.mem_ctrls.perBankWrBursts::5                 0                       # Per bank write bursts
system.mem_ctrls.perBankWrBursts::6                28                       # Per bank write bursts
system.mem_ctrls.perBankWrBursts::7                 6                       # Per bank write bursts
system.mem_ctrls.perBankWrBursts::8                 8                       # Per bank write bursts
system.mem_ctrls.perBankWrBursts::9                 0                       # Per bank write bursts
system.mem_ctrls.perBankWrBursts::10                1                       # Per bank write bursts
system.mem_ctrls.perBankWrBursts::11               19                       # Per bank write bursts
system.mem_ctrls.perBankWrBursts::12              193                       # Per bank write bursts
system.mem_ctrls.perBankWrBursts::13              123                       # Per bank write bursts
system.mem_ctrls.perBankWrBursts::14               24                       # Per bank write bursts
system.mem_ctrls.perBankWrBursts::15                0                       # Per bank write bursts
system.mem_ctrls.numRdRetry                         0                       # Number of times read queue was full causing retry
system.mem_ctrls.numWrRetry                         0                       # Number of times write queue was full causing retry
system.mem_ctrls.totGap                   15267350000                       # Total gap between requests
system.mem_ctrls.readPktSize::0                     0                       # Read request sizes (log2)
system.mem_ctrls.readPktSize::1                     0                       # Read request sizes (log2)
system.mem_ctrls.readPktSize::2                     0                       # Read request sizes (log2)
system.mem_ctrls.readPktSize::3                     0                       # Read request sizes (log2)
system.mem_ctrls.readPktSize::4                     0                       # Read request sizes (log2)
system.mem_ctrls.readPktSize::5                     0                       # Read request sizes (log2)
system.mem_ctrls.readPktSize::6                185984                       # Read request sizes (log2)
system.mem_ctrls.writePktSize::0                    0                       # Write request sizes (log2)
system.mem_ctrls.writePktSize::1                    0                       # Write request sizes (log2)
system.mem_ctrls.writePktSize::2                    0                       # Write request sizes (log2)
system.mem_ctrls.writePktSize::3                    0                       # Write request sizes (log2)
system.mem_ctrls.writePktSize::4                    0                       # Write request sizes (log2)
system.mem_ctrls.writePktSize::5                    0                       # Write request sizes (log2)
system.mem_ctrls.writePktSize::6                  401                       # Write request sizes (log2)
system.mem_ctrls.rdQLenPdf::0                  141729                       # What read queue length does an incoming req see
system.mem_ctrls.rdQLenPdf::1                   41205                       # What read queue length does an incoming req see
system.mem_ctrls.rdQLenPdf::2                    2932                       # What read queue length does an incoming req see
system.mem_ctrls.rdQLenPdf::3                      65                       # What read queue length does an incoming req see
system.mem_ctrls.rdQLenPdf::4                       0                       # What read queue length does an incoming req see
system.mem_ctrls.rdQLenPdf::5                       0                       # What read queue length does an incoming req see
system.mem_ctrls.rdQLenPdf::6                       0                       # What read queue length does an incoming req see
system.mem_ctrls.rdQLenPdf::7                       0                       # What read queue length does an incoming req see
system.mem_ctrls.rdQLenPdf::8                       0                       # What read queue length does an incoming req see
system.mem_ctrls.rdQLenPdf::9                       0                       # What read queue length does an incoming req see
system.mem_ctrls.rdQLenPdf::10                      0                       # What read queue length does an incoming req see
system.mem_ctrls.rdQLenPdf::11                      0                       # What read queue length does an incoming req see
system.mem_ctrls.rdQLenPdf::12                      0                       # What read queue length does an incoming req see
system.mem_ctrls.rdQLenPdf::13                      0                       # What read queue length does an incoming req see
system.mem_ctrls.rdQLenPdf::14                      0                       # What read queue length does an incoming req see
system.mem_ctrls.rdQLenPdf::15                      0                       # What read queue length does an incoming req see
system.mem_ctrls.rdQLenPdf::16                      0                       # What read queue length does an incoming req see
system.mem_ctrls.rdQLenPdf::17                      0                       # What read queue length does an incoming req see
system.mem_ctrls.rdQLenPdf::18                      0                       # What read queue length does an incoming req see
system.mem_ctrls.rdQLenPdf::19                      0                       # What read queue length does an incoming req see
system.mem_ctrls.rdQLenPdf::20                      0                       # What read queue length does an incoming req see
system.mem_ctrls.rdQLenPdf::21                      0                       # What read queue length does an incoming req see
system.mem_ctrls.rdQLenPdf::22                      0                       # What read queue length does an incoming req see
system.mem_ctrls.rdQLenPdf::23                      0                       # What read queue length does an incoming req see
system.mem_ctrls.rdQLenPdf::24                      0                       # What read queue length does an incoming req see
system.mem_ctrls.rdQLenPdf::25                      0                       # What read queue length does an incoming req see
system.mem_ctrls.rdQLenPdf::26                      0                       # What read queue length does an incoming req see
system.mem_ctrls.rdQLenPdf::27                      0                       # What read queue length does an incoming req see
system.mem_ctrls.rdQLenPdf::28                      0                       # What read queue length does an incoming req see
system.mem_ctrls.rdQLenPdf::29                      0                       # What read queue length does an incoming req see
system.mem_ctrls.rdQLenPdf::30                      0                       # What read queue length does an incoming req see
system.mem_ctrls.rdQLenPdf::31                      0                       # What read queue length does an incoming req see
system.mem_ctrls.wrQLenPdf::0                       0                       # What write queue length does an incoming req see
system.mem_ctrls.wrQLenPdf::1                       0                       # What write queue length does an incoming req see
system.mem_ctrls.wrQLenPdf::2                       0                       # What write queue length does an incoming req see
system.mem_ctrls.wrQLenPdf::3                       0                       # What write queue length does an incoming req see
system.mem_ctrls.wrQLenPdf::4                       0                       # What write queue length does an incoming req see
system.mem_ctrls.wrQLenPdf::5                       0                       # What write queue length does an incoming req see
system.mem_ctrls.wrQLenPdf::6                       0                       # What write queue length does an incoming req see
system.mem_ctrls.wrQLenPdf::7                       0                       # What write queue length does an incoming req see
system.mem_ctrls.wrQLenPdf::8                       0                       # What write queue length does an incoming req see
system.mem_ctrls.wrQLenPdf::9                       0                       # What write queue length does an incoming req see
system.mem_ctrls.wrQLenPdf::10                      0                       # What write queue length does an incoming req see
system.mem_ctrls.wrQLenPdf::11                      0                       # What write queue length does an incoming req see
system.mem_ctrls.wrQLenPdf::12                      0                       # What write queue length does an incoming req see
system.mem_ctrls.wrQLenPdf::13                      0                       # What write queue length does an incoming req see
system.mem_ctrls.wrQLenPdf::14                      0                       # What write queue length does an incoming req see
system.mem_ctrls.wrQLenPdf::15                      1                       # What write queue length does an incoming req see
system.mem_ctrls.wrQLenPdf::16                      1                       # What write queue length does an incoming req see
system.mem_ctrls.wrQLenPdf::17                     25                       # What write queue length does an incoming req see
system.mem_ctrls.wrQLenPdf::18                     25                       # What write queue length does an incoming req see
system.mem_ctrls.wrQLenPdf::19                     25                       # What write queue length does an incoming req see
system.mem_ctrls.wrQLenPdf::20                     25                       # What write queue length does an incoming req see
system.mem_ctrls.wrQLenPdf::21                     25                       # What write queue length does an incoming req see
system.mem_ctrls.wrQLenPdf::22                     25                       # What write queue length does an incoming req see
system.mem_ctrls.wrQLenPdf::23                     25                       # What write queue length does an incoming req see
system.mem_ctrls.wrQLenPdf::24                     25                       # What write queue length does an incoming req see
system.mem_ctrls.wrQLenPdf::25                     25                       # What write queue length does an incoming req see
system.mem_ctrls.wrQLenPdf::26                     25                       # What write queue length does an incoming req see
system.mem_ctrls.wrQLenPdf::27                     25                       # What write queue length does an incoming req see
system.mem_ctrls.wrQLenPdf::28                     25                       # What write queue length does an incoming req see
system.mem_ctrls.wrQLenPdf::29                     24                       # What write queue length does an incoming req see
system.mem_ctrls.wrQLenPdf::30                     25                       # What write queue length does an incoming req see
system.mem_ctrls.wrQLenPdf::31                     25                       # What write queue length does an incoming req see
system.mem_ctrls.wrQLenPdf::32                     25                       # What write queue length does an incoming req see
system.mem_ctrls.wrQLenPdf::33                      0                       # What write queue length does an incoming req see
system.mem_ctrls.wrQLenPdf::34                      0                       # What write queue length does an incoming req see
system.mem_ctrls.wrQLenPdf::35                      0                       # What write queue length does an incoming req see
system.mem_ctrls.wrQLenPdf::36                      0                       # What write queue length does an incoming req see
system.mem_ctrls.wrQLenPdf::37                      0                       # What write queue length does an incoming req see
system.mem_ctrls.wrQLenPdf::38                      0                       # What write queue length does an incoming req see
system.mem_ctrls.wrQLenPdf::39                      0                       # What write queue length does an incoming req see
system.mem_ctrls.wrQLenPdf::40                      0                       # What write queue length does an incoming req see
system.mem_ctrls.wrQLenPdf::41                      0                       # What write queue length does an incoming req see
system.mem_ctrls.wrQLenPdf::42                      0                       # What write queue length does an incoming req see
system.mem_ctrls.wrQLenPdf::43                      0                       # What write queue length does an incoming req see
system.mem_ctrls.wrQLenPdf::44                      0                       # What write queue length does an incoming req see
system.mem_ctrls.wrQLenPdf::45                      0                       # What write queue length does an incoming req see
system.mem_ctrls.wrQLenPdf::46                      0                       # What write queue length does an incoming req see
system.mem_ctrls.wrQLenPdf::47                      0                       # What write queue length does an incoming req see
system.mem_ctrls.wrQLenPdf::48                      0                       # What write queue length does an incoming req see
system.mem_ctrls.wrQLenPdf::49                      0                       # What write queue length does an incoming req see
system.mem_ctrls.wrQLenPdf::50                      0                       # What write queue length does an incoming req see
system.mem_ctrls.wrQLenPdf::51                      0                       # What write queue length does an incoming req see
system.mem_ctrls.wrQLenPdf::52                      0                       # What write queue length does an incoming req see
system.mem_ctrls.wrQLenPdf::53                      0                       # What write queue length does an incoming req see
system.mem_ctrls.wrQLenPdf::54                      0                       # What write queue length does an incoming req see
system.mem_ctrls.wrQLenPdf::55                      0                       # What write queue length does an incoming req see
system.mem_ctrls.wrQLenPdf::56                      0                       # What write queue length does an incoming req see
system.mem_ctrls.wrQLenPdf::57                      0                       # What write queue length does an incoming req see
system.mem_ctrls.wrQLenPdf::58                      0                       # What write queue length does an incoming req see
system.mem_ctrls.wrQLenPdf::59                      0                       # What write queue length does an incoming req see
system.mem_ctrls.wrQLenPdf::60                      0                       # What write queue length does an incoming req see
system.mem_ctrls.wrQLenPdf::61                      0                       # What write queue length does an incoming req see
system.mem_ctrls.wrQLenPdf::62                      0                       # What write queue length does an incoming req see
system.mem_ctrls.wrQLenPdf::63                      0                       # What write queue length does an incoming req see
system.mem_ctrls.bytesPerActivate::samples        97497                       # Bytes accessed per row activation
system.mem_ctrls.bytesPerActivate::mean    122.324502                       # Bytes accessed per row activation
system.mem_ctrls.bytesPerActivate::gmean   105.490764                       # Bytes accessed per row activation
system.mem_ctrls.bytesPerActivate::stdev    73.343490                       # Bytes accessed per row activation
system.mem_ctrls.bytesPerActivate::0-127        45867     47.04%     47.04% # Bytes accessed per row activation
system.mem_ctrls.bytesPerActivate::128-255        42209     43.29%     90.34% # Bytes accessed per row activation
system.mem_ctrls.bytesPerActivate::256-383         8282      8.49%     98.83% # Bytes accessed per row activation
system.mem_ctrls.bytesPerActivate::384-511         1007      1.03%     99.86% # Bytes accessed per row activation
system.mem_ctrls.bytesPerActivate::512-639          108      0.11%     99.98% # Bytes accessed per row activation
system.mem_ctrls.bytesPerActivate::640-767           11      0.01%     99.99% # Bytes accessed per row activation
system.mem_ctrls.bytesPerActivate::768-895            7      0.01%     99.99% # Bytes accessed per row activation
system.mem_ctrls.bytesPerActivate::896-1023            1      0.00%     99.99% # Bytes accessed per row activation
system.mem_ctrls.bytesPerActivate::1024-1151            5      0.01%    100.00% # Bytes accessed per row activation
system.mem_ctrls.bytesPerActivate::total        97497                       # Bytes accessed per row activation
system.mem_ctrls.rdPerTurnAround::samples           25                       # Reads before turning the bus around for writes
system.mem_ctrls.rdPerTurnAround::mean    7493.440000                       # Reads before turning the bus around for writes
system.mem_ctrls.rdPerTurnAround::gmean   7257.316588                       # Reads before turning the bus around for writes
system.mem_ctrls.rdPerTurnAround::stdev   1862.091545                       # Reads before turning the bus around for writes
system.mem_ctrls.rdPerTurnAround::4096-4607            2      8.00%      8.00% # Reads before turning the bus around for writes
system.mem_ctrls.rdPerTurnAround::4608-5119            1      4.00%     12.00% # Reads before turning the bus around for writes
system.mem_ctrls.rdPerTurnAround::5120-5631            2      8.00%     20.00% # Reads before turning the bus around for writes
system.mem_ctrls.rdPerTurnAround::5632-6143            1      4.00%     24.00% # Reads before turning the bus around for writes
system.mem_ctrls.rdPerTurnAround::6144-6655            2      8.00%     32.00% # Reads before turning the bus around for writes
system.mem_ctrls.rdPerTurnAround::6656-7167            3     12.00%     44.00% # Reads before turning the bus around for writes
system.mem_ctrls.rdPerTurnAround::7168-7679            4     16.00%     60.00% # Reads before turning the bus around for writes
system.mem_ctrls.rdPerTurnAround::7680-8191            2      8.00%     68.00% # Reads before turning the bus around for writes
system.mem_ctrls.rdPerTurnAround::8704-9215            2      8.00%     76.00% # Reads before turning the bus around for writes
system.mem_ctrls.rdPerTurnAround::9216-9727            3     12.00%     88.00% # Reads before turning the bus around for writes
system.mem_ctrls.rdPerTurnAround::9728-10239            1      4.00%     92.00% # Reads before turning the bus around for writes
system.mem_ctrls.rdPerTurnAround::10240-10751            2      8.00%    100.00% # Reads before turning the bus around for writes
system.mem_ctrls.rdPerTurnAround::total            25                       # Reads before turning the bus around for writes
system.mem_ctrls.wrPerTurnAround::samples           25                       # Writes before turning the bus around for reads
system.mem_ctrls.wrPerTurnAround::mean      16.080000                       # Writes before turning the bus around for reads
system.mem_ctrls.wrPerTurnAround::gmean     16.075559                       # Writes before turning the bus around for reads
system.mem_ctrls.wrPerTurnAround::stdev      0.400000                       # Writes before turning the bus around for reads
system.mem_ctrls.wrPerTurnAround::16               24     96.00%     96.00% # Writes before turning the bus around for reads
system.mem_ctrls.wrPerTurnAround::18                1      4.00%    100.00% # Writes before turning the bus around for reads
system.mem_ctrls.wrPerTurnAround::total            25                       # Writes before turning the bus around for reads
system.mem_ctrls.totQLat                   4601270250                       # Total ticks spent queuing
system.mem_ctrls.totMemAccLat              8087476500                       # Total ticks spent from burst creation until serviced by the DRAM
system.mem_ctrls.totBusLat                  929655000                       # Total ticks spent in databus transfers
system.mem_ctrls.avgQLat                     24747.19                       # Average queueing delay per DRAM burst
system.mem_ctrls.avgBusLat                    5000.00                       # Average bus latency per DRAM burst
system.mem_ctrls.avgMemAccLat                43497.19                       # Average memory access latency per DRAM burst
system.mem_ctrls.avgRdBW                       779.41                       # Average DRAM read bandwidth in MiByte/s
system.mem_ctrls.avgWrBW                         1.69                       # Average achieved write bandwidth in MiByte/s
system.mem_ctrls.avgRdBWSys                    779.64                       # Average system read bandwidth in MiByte/s
system.mem_ctrls.avgWrBWSys                      1.68                       # Average system write bandwidth in MiByte/s
system.mem_ctrls.peakBW                      12800.00                       # Theoretical peak bandwidth in MiByte/s
system.mem_ctrls.busUtil                         6.10                       # Data bus utilization in percentage
system.mem_ctrls.busUtilRead                     6.09                       # Data bus utilization in percentage for reads
system.mem_ctrls.busUtilWrite                    0.01                       # Data bus utilization in percentage for writes
system.mem_ctrls.avgRdQLen                       1.30                       # Average read queue length when enqueuing
system.mem_ctrls.avgWrQLen                      25.57                       # Average write queue length when enqueuing
system.mem_ctrls.readRowHits                    88499                       # Number of row buffer hits during reads
system.mem_ctrls.writeRowHits                     338                       # Number of row buffer hits during writes
system.mem_ctrls.readRowHitRate                 47.60                       # Row buffer hit rate for reads
system.mem_ctrls.writeRowHitRate                84.29                       # Row buffer hit rate for writes
system.mem_ctrls.avgGap                      81912.98                       # Average gap between requests
system.mem_ctrls.pageHitRate                    47.68                       # Row buffer hit rate, read and write combined
system.mem_ctrls_0.actEnergy                344969100                       # Energy for activate commands per rank (pJ)
system.mem_ctrls_0.preEnergy                183347835                       # Energy for precharge commands per rank (pJ)
system.mem_ctrls_0.readEnergy               656801460                       # Energy for read commands per rank (pJ)
system.mem_ctrls_0.writeEnergy                 177480                       # Energy for write commands per rank (pJ)
system.mem_ctrls_0.refreshEnergy         1205309040.000000                       # Energy for refresh commands per rank (pJ)
system.mem_ctrls_0.actBackEnergy           1577692170                       # Energy for active background per rank (pJ)
system.mem_ctrls_0.preBackEnergy             24243360                       # Energy for precharge background per rank (pJ)
system.mem_ctrls_0.actPowerDownEnergy      5203497510                       # Energy for active power-down per rank (pJ)
system.mem_ctrls_0.prePowerDownEnergy       127941120                       # Energy for precharge power-down per rank (pJ)
system.mem_ctrls_0.selfRefreshEnergy                0                       # Energy for self refresh per rank (pJ)
system.mem_ctrls_0.totalEnergy             9323979075                       # Total energy per rank (pJ)
system.mem_ctrls_0.averagePower            610.713887                       # Core power per rank (mW)
system.mem_ctrls_0.totalIdleTime          11743859750                       # Total Idle time Per DRAM Rank
system.mem_ctrls_0.memoryStateTime::IDLE      9726000                       # Time in different power states
system.mem_ctrls_0.memoryStateTime::REF     509860000                       # Time in different power states
system.mem_ctrls_0.memoryStateTime::SREF            0                       # Time in different power states
system.mem_ctrls_0.memoryStateTime::PRE_PDN    333548250                       # Time in different power states
system.mem_ctrls_0.memoryStateTime::ACT    3003898375                       # Time in different power states
system.mem_ctrls_0.memoryStateTime::ACT_PDN  11410311500                       # Time in different power states
system.mem_ctrls_1.actEnergy                351152340                       # Energy for activate commands per rank (pJ)
system.mem_ctrls_1.preEnergy                186653280                       # Energy for precharge commands per rank (pJ)
system.mem_ctrls_1.readEnergy               670745880                       # Energy for read commands per rank (pJ)
system.mem_ctrls_1.writeEnergy                1920960                       # Energy for write commands per rank (pJ)
system.mem_ctrls_1.refreshEnergy         1205923680.000000                       # Energy for refresh commands per rank (pJ)
system.mem_ctrls_1.actBackEnergy           1604204010                       # Energy for active background per rank (pJ)
system.mem_ctrls_1.preBackEnergy             24822720                       # Energy for precharge background per rank (pJ)
system.mem_ctrls_1.actPowerDownEnergy      5199120480                       # Energy for active power-down per rank (pJ)
system.mem_ctrls_1.prePowerDownEnergy       108197280                       # Energy for precharge power-down per rank (pJ)
system.mem_ctrls_1.selfRefreshEnergy     880140.000000                       # Energy for self refresh per rank (pJ)
system.mem_ctrls_1.totalEnergy             9353620770                       # Total energy per rank (pJ)
system.mem_ctrls_1.averagePower            612.655397                       # Core power per rank (mW)
system.mem_ctrls_1.totalIdleTime          11683775875                       # Total Idle time Per DRAM Rank
system.mem_ctrls_1.memoryStateTime::IDLE     10068250                       # Time in different power states
system.mem_ctrls_1.memoryStateTime::REF     510126000                       # Time in different power states
system.mem_ctrls_1.memoryStateTime::SREF      1366250                       # Time in different power states
system.mem_ctrls_1.memoryStateTime::PRE_PDN    281495750                       # Time in different power states
system.mem_ctrls_1.memoryStateTime::ACT    3062795750                       # Time in different power states
system.mem_ctrls_1.memoryStateTime::ACT_PDN  11401492125                       # Time in different power states
system.pwrStateResidencyTicks::UNDEFINED  15267344125                       # Cumulative time (in ticks) in various power states
system.cpu0.branchPred.lookups                1788254                       # Number of BP lookups
system.cpu0.branchPred.condPredicted          1788254                       # Number of conditional branches predicted
system.cpu0.branchPred.condIncorrect            71845                       # Number of conditional branches incorrect
system.cpu0.branchPred.BTBLookups             1386641                       # Number of BTB lookups
system.cpu0.branchPred.BTBHits                      0                       # Number of BTB hits
system.cpu0.branchPred.BTBCorrect                   0                       # Number of correct BTB predictions (this stat may not work properly.
system.cpu0.branchPred.BTBHitPct             0.000000                       # BTB Hit Percentage
system.cpu0.branchPred.usedRAS                  44897                       # Number of times the RAS was used to get a target.
system.cpu0.branchPred.RASInCorrect              6625                       # Number of incorrect RAS predictions.
system.cpu0.branchPred.indirectLookups        1386641                       # Number of indirect predictor lookups.
system.cpu0.branchPred.indirectHits            769210                       # Number of indirect target hits.
system.cpu0.branchPred.indirectMisses          617431                       # Number of indirect misses.
system.cpu0.branchPredindirectMispredicted        22564                       # Number of mispredicted indirect branches.
system.cpu_voltage_domain.voltage                   1                       # Voltage in Volts
system.cpu_clk_domain.clock                       500                       # Clock period in ticks
system.cpu0.dtb.walker.pwrStateResidencyTicks::UNDEFINED  15267344125                       # Cumulative time (in ticks) in various power states
system.cpu0.dtb.rdAccesses                     826998                       # TLB accesses on read requests
system.cpu0.dtb.wrAccesses                      51696                       # TLB accesses on write requests
system.cpu0.dtb.rdMisses                       173460                       # TLB misses on read requests
system.cpu0.dtb.wrMisses                          866                       # TLB misses on write requests
system.cpu0.apic_clk_domain.clock                8000                       # Clock period in ticks
system.cpu0.interrupts.pwrStateResidencyTicks::UNDEFINED  15267344125                       # Cumulative time (in ticks) in various power states
system.cpu0.itb.walker.pwrStateResidencyTicks::UNDEFINED  15267344125                       # Cumulative time (in ticks) in various power states
system.cpu0.itb.rdAccesses                          0                       # TLB accesses on read requests
system.cpu0.itb.wrAccesses                    1507451                       # TLB accesses on write requests
system.cpu0.itb.rdMisses                            0                       # TLB misses on read requests
system.cpu0.itb.wrMisses                         4279                       # TLB misses on write requests
system.cpu0.workload.numSyscalls                    0                       # Number of system calls
system.cpu0.pwrStateResidencyTicks::ON    15267344125                       # Cumulative time (in ticks) in various power states
system.cpu0.numCycles                        30534688                       # number of cpu cycles simulated
system.cpu0.numWorkItemsStarted                     0                       # number of work items this cpu started
system.cpu0.numWorkItemsCompleted                   0                       # number of work items this cpu completed
system.cpu0.fetch.icacheStallCycles           1539470                       # Number of cycles fetch is stalled on an Icache miss
system.cpu0.fetch.Insts                       5143372                       # Number of instructions fetch has processed
system.cpu0.fetch.Branches                    1788254                       # Number of branches that fetch encountered
system.cpu0.fetch.predictedBranches            814107                       # Number of branches that fetch has predicted taken
system.cpu0.fetch.Cycles                     28837958                       # Number of cycles fetch has run and was not squashing or blocked
system.cpu0.fetch.SquashCycles                 146376                       # Number of cycles fetch has spent squashing
system.cpu0.fetch.TlbCycles                      2662                       # Number of cycles fetch has spent waiting for tlb
system.cpu0.fetch.MiscStallCycles                1040                       # Number of cycles fetch has spent waiting on interrupts, or bad addresses, or out of MSHRs
system.cpu0.fetch.PendingTrapStallCycles        36936                       # Number of stall cycles due to pending traps
system.cpu0.fetch.CacheLines                  1503172                       # Number of cache lines fetched
system.cpu0.fetch.IcacheSquashes                 8657                       # Number of outstanding Icache misses that were squashed
system.cpu0.fetch.ItlbSquashes                     15                       # Number of outstanding ITLB misses that were squashed
system.cpu0.fetch.rateDist::samples          30491254                       # Number of instructions fetched each cycle (Total)
system.cpu0.fetch.rateDist::mean             0.338938                       # Number of instructions fetched each cycle (Total)
system.cpu0.fetch.rateDist::stdev            1.461159                       # Number of instructions fetched each cycle (Total)
system.cpu0.fetch.rateDist::underflows              0      0.00%      0.00% # Number of instructions fetched each cycle (Total)
system.cpu0.fetch.rateDist::0                28477771     93.40%     93.40% # Number of instructions fetched each cycle (Total)
system.cpu0.fetch.rateDist::1                   22619      0.07%     93.47% # Number of instructions fetched each cycle (Total)
system.cpu0.fetch.rateDist::2                  753415      2.47%     95.94% # Number of instructions fetched each cycle (Total)
system.cpu0.fetch.rateDist::3                   25598      0.08%     96.03% # Number of instructions fetched each cycle (Total)
system.cpu0.fetch.rateDist::4                  142305      0.47%     96.49% # Number of instructions fetched each cycle (Total)
system.cpu0.fetch.rateDist::5                   63678      0.21%     96.70% # Number of instructions fetched each cycle (Total)
system.cpu0.fetch.rateDist::6                   91279      0.30%     97.00% # Number of instructions fetched each cycle (Total)
system.cpu0.fetch.rateDist::7                   23604      0.08%     97.08% # Number of instructions fetched each cycle (Total)
system.cpu0.fetch.rateDist::8                  890985      2.92%    100.00% # Number of instructions fetched each cycle (Total)
system.cpu0.fetch.rateDist::overflows               0      0.00%    100.00% # Number of instructions fetched each cycle (Total)
system.cpu0.fetch.rateDist::min_value               0                       # Number of instructions fetched each cycle (Total)
system.cpu0.fetch.rateDist::max_value               8                       # Number of instructions fetched each cycle (Total)
system.cpu0.fetch.rateDist::total            30491254                       # Number of instructions fetched each cycle (Total)
system.cpu0.fetch.branchRate                 0.058565                       # Number of branch fetches per cycle
system.cpu0.fetch.rate                       0.168444                       # Number of inst fetches per cycle
system.cpu0.decode.IdleCycles                  757679                       # Number of cycles decode is idle
system.cpu0.decode.BlockedCycles             28342130                       # Number of cycles decode is blocked
system.cpu0.decode.RunCycles                   971827                       # Number of cycles decode is running
system.cpu0.decode.UnblockCycles               346430                       # Number of cycles decode is unblocking
system.cpu0.decode.SquashCycles                 73188                       # Number of cycles decode is squashing
system.cpu0.decode.DecodedInsts               8515014                       # Number of instructions handled by decode
system.cpu0.rename.SquashCycles                 73188                       # Number of cycles rename is squashing
system.cpu0.rename.IdleCycles                  863084                       # Number of cycles rename is idle
system.cpu0.rename.BlockCycles               26960449                       # Number of cycles rename is blocking
system.cpu0.rename.serializeStallCycles         12862                       # count of cycles rename stalled for serializing inst
system.cpu0.rename.RunCycles                  1130119                       # Number of cycles rename is running
system.cpu0.rename.UnblockCycles              1451552                       # Number of cycles rename is unblocking
system.cpu0.rename.RenamedInsts               8178777                       # Number of instructions processed by rename
system.cpu0.rename.ROBFullEvents                63284                       # Number of times rename has blocked due to ROB full
system.cpu0.rename.IQFullEvents               1149973                       # Number of times rename has blocked due to IQ full
system.cpu0.rename.LQFullEvents                256872                       # Number of times rename has blocked due to LQ full
system.cpu0.rename.SQFullEvents                   809                       # Number of times rename has blocked due to SQ full
system.cpu0.rename.RenamedOperands            9761045                       # Number of destination operands rename has renamed
system.cpu0.rename.RenameLookups             22846724                       # Number of register rename lookups that rename has made
system.cpu0.rename.int_rename_lookups        10667543                       # Number of integer rename lookups
system.cpu0.rename.fp_rename_lookups            36272                       # Number of floating rename lookups
system.cpu0.rename.CommittedMaps              3484742                       # Number of HB maps that are committed
system.cpu0.rename.UndoneMaps                 6276297                       # Number of HB maps that are undone due to squashing
system.cpu0.rename.serializingInsts               264                       # count of serializing insts renamed
system.cpu0.rename.tempSerializingInsts           332                       # count of temporary serializing insts renamed
system.cpu0.rename.skidInsts                  2191646                       # count of insts added to the skid buffer
system.cpu0.memDep0.insertedLoads             1486005                       # Number of loads inserted to the mem dependence unit.
system.cpu0.memDep0.insertedStores              76377                       # Number of stores inserted to the mem dependence unit.
system.cpu0.memDep0.conflictingLoads             5022                       # Number of conflicting loads.
system.cpu0.memDep0.conflictingStores            5006                       # Number of conflicting stores.
system.cpu0.iq.iqInstsAdded                   7775825                       # Number of instructions added to the IQ (excludes non-spec)
system.cpu0.iq.iqNonSpecInstsAdded               4508                       # Number of non-speculative instructions added to the IQ
system.cpu0.iq.iqInstsIssued                  5522951                       # Number of instructions issued
system.cpu0.iq.iqSquashedInstsIssued             5590                       # Number of squashed instructions issued
system.cpu0.iq.iqSquashedInstsExamined        4872064                       # Number of squashed instructions iterated over during squash; mainly for profiling
system.cpu0.iq.iqSquashedOperandsExamined     10411273                       # Number of squashed operands that are examined and possibly removed from graph
system.cpu0.iq.iqSquashedNonSpecRemoved          4508                       # Number of squashed non-spec instructions that were removed
system.cpu0.iq.issued_per_cycle::samples     30491254                       # Number of insts issued each cycle
system.cpu0.iq.issued_per_cycle::mean        0.181132                       # Number of insts issued each cycle
system.cpu0.iq.issued_per_cycle::stdev       0.772412                       # Number of insts issued each cycle
system.cpu0.iq.issued_per_cycle::underflows            0      0.00%      0.00% # Number of insts issued each cycle
system.cpu0.iq.issued_per_cycle::0           28220751     92.55%     92.55% # Number of insts issued each cycle
system.cpu0.iq.issued_per_cycle::1             898736      2.95%     95.50% # Number of insts issued each cycle
system.cpu0.iq.issued_per_cycle::2             482760      1.58%     97.08% # Number of insts issued each cycle
system.cpu0.iq.issued_per_cycle::3             320078      1.05%     98.13% # Number of insts issued each cycle
system.cpu0.iq.issued_per_cycle::4             343275      1.13%     99.26% # Number of insts issued each cycle
system.cpu0.iq.issued_per_cycle::5              97688      0.32%     99.58% # Number of insts issued each cycle
system.cpu0.iq.issued_per_cycle::6              79642      0.26%     99.84% # Number of insts issued each cycle
system.cpu0.iq.issued_per_cycle::7              27523      0.09%     99.93% # Number of insts issued each cycle
system.cpu0.iq.issued_per_cycle::8              20801      0.07%    100.00% # Number of insts issued each cycle
system.cpu0.iq.issued_per_cycle::overflows            0      0.00%    100.00% # Number of insts issued each cycle
system.cpu0.iq.issued_per_cycle::min_value            0                       # Number of insts issued each cycle
system.cpu0.iq.issued_per_cycle::max_value            8                       # Number of insts issued each cycle
system.cpu0.iq.issued_per_cycle::total       30491254                       # Number of insts issued each cycle
system.cpu0.iq.fu_full::No_OpClass                  0      0.00%      0.00% # attempts to use FU when none available
system.cpu0.iq.fu_full::IntAlu                  10978     69.49%     69.49% # attempts to use FU when none available
system.cpu0.iq.fu_full::IntMult                     0      0.00%     69.49% # attempts to use FU when none available
system.cpu0.iq.fu_full::IntDiv                      0      0.00%     69.49% # attempts to use FU when none available
system.cpu0.iq.fu_full::FloatAdd                 1095      6.93%     76.42% # attempts to use FU when none available
system.cpu0.iq.fu_full::FloatCmp                    0      0.00%     76.42% # attempts to use FU when none available
system.cpu0.iq.fu_full::FloatCvt                    0      0.00%     76.42% # attempts to use FU when none available
system.cpu0.iq.fu_full::FloatMult                   0      0.00%     76.42% # attempts to use FU when none available
system.cpu0.iq.fu_full::FloatMultAcc                0      0.00%     76.42% # attempts to use FU when none available
system.cpu0.iq.fu_full::FloatDiv                    0      0.00%     76.42% # attempts to use FU when none available
system.cpu0.iq.fu_full::FloatMisc                   0      0.00%     76.42% # attempts to use FU when none available
system.cpu0.iq.fu_full::FloatSqrt                   0      0.00%     76.42% # attempts to use FU when none available
system.cpu0.iq.fu_full::SimdAdd                     0      0.00%     76.42% # attempts to use FU when none available
system.cpu0.iq.fu_full::SimdAddAcc                  0      0.00%     76.42% # attempts to use FU when none available
system.cpu0.iq.fu_full::SimdAlu                     0      0.00%     76.42% # attempts to use FU when none available
system.cpu0.iq.fu_full::SimdCmp                     0      0.00%     76.42% # attempts to use FU when none available
system.cpu0.iq.fu_full::SimdCvt                     0      0.00%     76.42% # attempts to use FU when none available
system.cpu0.iq.fu_full::SimdMisc                    0      0.00%     76.42% # attempts to use FU when none available
system.cpu0.iq.fu_full::SimdMult                    0      0.00%     76.42% # attempts to use FU when none available
system.cpu0.iq.fu_full::SimdMultAcc                 0      0.00%     76.42% # attempts to use FU when none available
system.cpu0.iq.fu_full::SimdShift                   0      0.00%     76.42% # attempts to use FU when none available
system.cpu0.iq.fu_full::SimdShiftAcc                0      0.00%     76.42% # attempts to use FU when none available
system.cpu0.iq.fu_full::SimdSqrt                    0      0.00%     76.42% # attempts to use FU when none available
system.cpu0.iq.fu_full::SimdFloatAdd                0      0.00%     76.42% # attempts to use FU when none available
system.cpu0.iq.fu_full::SimdFloatAlu                0      0.00%     76.42% # attempts to use FU when none available
system.cpu0.iq.fu_full::SimdFloatCmp                0      0.00%     76.42% # attempts to use FU when none available
system.cpu0.iq.fu_full::SimdFloatCvt                0      0.00%     76.42% # attempts to use FU when none available
system.cpu0.iq.fu_full::SimdFloatDiv                0      0.00%     76.42% # attempts to use FU when none available
system.cpu0.iq.fu_full::SimdFloatMisc               0      0.00%     76.42% # attempts to use FU when none available
system.cpu0.iq.fu_full::SimdFloatMult               0      0.00%     76.42% # attempts to use FU when none available
system.cpu0.iq.fu_full::SimdFloatMultAcc            0      0.00%     76.42% # attempts to use FU when none available
system.cpu0.iq.fu_full::SimdFloatSqrt               0      0.00%     76.42% # attempts to use FU when none available
system.cpu0.iq.fu_full::MemRead                  3282     20.77%     97.20% # attempts to use FU when none available
system.cpu0.iq.fu_full::MemWrite                  287      1.82%     99.01% # attempts to use FU when none available
system.cpu0.iq.fu_full::FloatMemRead              138      0.87%     99.89% # attempts to use FU when none available
system.cpu0.iq.fu_full::FloatMemWrite              18      0.11%    100.00% # attempts to use FU when none available
system.cpu0.iq.fu_full::IprAccess                   0      0.00%    100.00% # attempts to use FU when none available
system.cpu0.iq.fu_full::InstPrefetch                0      0.00%    100.00% # attempts to use FU when none available
system.cpu0.iq.FU_type_0::No_OpClass            16908      0.31%      0.31% # Type of FU issued
system.cpu0.iq.FU_type_0::IntAlu              4561160     82.59%     82.89% # Type of FU issued
system.cpu0.iq.FU_type_0::IntMult                1247      0.02%     82.91% # Type of FU issued
system.cpu0.iq.FU_type_0::IntDiv                 9907      0.18%     83.09% # Type of FU issued
system.cpu0.iq.FU_type_0::FloatAdd              13552      0.25%     83.34% # Type of FU issued
system.cpu0.iq.FU_type_0::FloatCmp                  0      0.00%     83.34% # Type of FU issued
system.cpu0.iq.FU_type_0::FloatCvt                  0      0.00%     83.34% # Type of FU issued
system.cpu0.iq.FU_type_0::FloatMult                 0      0.00%     83.34% # Type of FU issued
system.cpu0.iq.FU_type_0::FloatMultAcc              0      0.00%     83.34% # Type of FU issued
system.cpu0.iq.FU_type_0::FloatDiv                  0      0.00%     83.34% # Type of FU issued
system.cpu0.iq.FU_type_0::FloatMisc                 0      0.00%     83.34% # Type of FU issued
system.cpu0.iq.FU_type_0::FloatSqrt                 0      0.00%     83.34% # Type of FU issued
system.cpu0.iq.FU_type_0::SimdAdd                   0      0.00%     83.34% # Type of FU issued
system.cpu0.iq.FU_type_0::SimdAddAcc                0      0.00%     83.34% # Type of FU issued
system.cpu0.iq.FU_type_0::SimdAlu                   0      0.00%     83.34% # Type of FU issued
system.cpu0.iq.FU_type_0::SimdCmp                   0      0.00%     83.34% # Type of FU issued
system.cpu0.iq.FU_type_0::SimdCvt                   0      0.00%     83.34% # Type of FU issued
system.cpu0.iq.FU_type_0::SimdMisc                  0      0.00%     83.34% # Type of FU issued
system.cpu0.iq.FU_type_0::SimdMult                  0      0.00%     83.34% # Type of FU issued
system.cpu0.iq.FU_type_0::SimdMultAcc               0      0.00%     83.34% # Type of FU issued
system.cpu0.iq.FU_type_0::SimdShift                 0      0.00%     83.34% # Type of FU issued
system.cpu0.iq.FU_type_0::SimdShiftAcc              0      0.00%     83.34% # Type of FU issued
system.cpu0.iq.FU_type_0::SimdSqrt                  0      0.00%     83.34% # Type of FU issued
system.cpu0.iq.FU_type_0::SimdFloatAdd              0      0.00%     83.34% # Type of FU issued
system.cpu0.iq.FU_type_0::SimdFloatAlu              0      0.00%     83.34% # Type of FU issued
system.cpu0.iq.FU_type_0::SimdFloatCmp              0      0.00%     83.34% # Type of FU issued
system.cpu0.iq.FU_type_0::SimdFloatCvt              0      0.00%     83.34% # Type of FU issued
system.cpu0.iq.FU_type_0::SimdFloatDiv              0      0.00%     83.34% # Type of FU issued
system.cpu0.iq.FU_type_0::SimdFloatMisc             0      0.00%     83.34% # Type of FU issued
system.cpu0.iq.FU_type_0::SimdFloatMult             0      0.00%     83.34% # Type of FU issued
system.cpu0.iq.FU_type_0::SimdFloatMultAcc            0      0.00%     83.34% # Type of FU issued
system.cpu0.iq.FU_type_0::SimdFloatSqrt             0      0.00%     83.34% # Type of FU issued
system.cpu0.iq.FU_type_0::MemRead              861568     15.60%     98.94% # Type of FU issued
system.cpu0.iq.FU_type_0::MemWrite              55668      1.01%     99.95% # Type of FU issued
system.cpu0.iq.FU_type_0::FloatMemRead           2861      0.05%    100.00% # Type of FU issued
system.cpu0.iq.FU_type_0::FloatMemWrite            80      0.00%    100.00% # Type of FU issued
system.cpu0.iq.FU_type_0::IprAccess                 0      0.00%    100.00% # Type of FU issued
system.cpu0.iq.FU_type_0::InstPrefetch              0      0.00%    100.00% # Type of FU issued
system.cpu0.iq.FU_type_0::total               5522951                       # Type of FU issued
system.cpu0.iq.rate                          0.180875                       # Inst issue rate
system.cpu0.iq.fu_busy_cnt                      15798                       # FU busy when requested
system.cpu0.iq.fu_busy_rate                  0.002860                       # FU busy rate (busy events/executed inst)
system.cpu0.iq.int_inst_queue_reads          41524142                       # Number of integer instruction queue reads
system.cpu0.iq.int_inst_queue_writes         12621888                       # Number of integer instruction queue writes
system.cpu0.iq.int_inst_queue_wakeup_accesses      5302234                       # Number of integer instruction queue wakeup accesses
system.cpu0.iq.fp_inst_queue_reads              34402                       # Number of floating instruction queue reads
system.cpu0.iq.fp_inst_queue_writes             30518                       # Number of floating instruction queue writes
system.cpu0.iq.fp_inst_queue_wakeup_accesses        14900                       # Number of floating instruction queue wakeup accesses
system.cpu0.iq.vec_inst_queue_reads                 0                       # Number of vector instruction queue reads
system.cpu0.iq.vec_inst_queue_writes                0                       # Number of vector instruction queue writes
system.cpu0.iq.vec_inst_queue_wakeup_accesses            0                       # Number of vector instruction queue wakeup accesses
system.cpu0.iq.int_alu_accesses               5504088                       # Number of integer alu accesses
system.cpu0.iq.fp_alu_accesses                  17753                       # Number of floating point alu accesses
system.cpu0.iq.vec_alu_accesses                     0                       # Number of vector alu accesses
system.cpu0.iew.lsq.thread0.forwLoads            4866                       # Number of loads that had data forwarded from stores
system.cpu0.iew.lsq.thread0.invAddrLoads            0                       # Number of loads ignored due to an invalid address
system.cpu0.iew.lsq.thread0.squashedLoads       935122                       # Number of loads squashed
system.cpu0.iew.lsq.thread0.ignoredResponses          131                       # Number of memory responses ignored because the instruction is squashed
system.cpu0.iew.lsq.thread0.memOrderViolation           10                       # Number of memory ordering violations
system.cpu0.iew.lsq.thread0.squashedStores        46951                       # Number of stores squashed
system.cpu0.iew.lsq.thread0.invAddrSwpfs            0                       # Number of software prefetches ignored due to an invalid address
system.cpu0.iew.lsq.thread0.blockedLoads            0                       # Number of blocked loads due to partial load-store forwarding
system.cpu0.iew.lsq.thread0.rescheduledLoads           41                       # Number of loads that were rescheduled
system.cpu0.iew.lsq.thread0.cacheBlocked         1717                       # Number of times an access to memory failed due to the cache being blocked
system.cpu0.iew.iewIdleCycles                       0                       # Number of cycles IEW is idle
system.cpu0.iew.iewSquashCycles                 73188                       # Number of cycles IEW is squashing
system.cpu0.iew.iewBlockCycles               25106123                       # Number of cycles IEW is blocking
system.cpu0.iew.iewUnblockCycles               291349                       # Number of cycles IEW is unblocking
system.cpu0.iew.iewDispatchedInsts            7780333                       # Number of instructions dispatched to IQ
system.cpu0.iew.iewDispSquashedInsts             4353                       # Number of squashed instructions skipped by dispatch
system.cpu0.iew.iewDispLoadInsts              1486005                       # Number of dispatched load instructions
system.cpu0.iew.iewDispStoreInsts               76377                       # Number of dispatched store instructions
system.cpu0.iew.iewDispNonSpecInsts              1665                       # Number of dispatched non-speculative instructions
system.cpu0.iew.iewIQFullEvents                 19841                       # Number of times the IQ has become full, causing a stall
system.cpu0.iew.iewLSQFullEvents                67907                       # Number of times the LSQ has become full, causing a stall
system.cpu0.iew.memOrderViolationEvents            10                       # Number of memory order violations
system.cpu0.iew.predictedTakenIncorrect         40040                       # Number of branches that were predicted taken incorrectly
system.cpu0.iew.predictedNotTakenIncorrect        40466                       # Number of branches that were predicted not taken incorrectly
system.cpu0.iew.branchMispredicts               80506                       # Number of branch mispredicts detected at execute
system.cpu0.iew.iewExecutedInsts              5427567                       # Number of executed instructions
system.cpu0.iew.iewExecLoadInsts               826747                       # Number of load instructions executed
system.cpu0.iew.iewExecSquashedInsts            95384                       # Number of squashed instructions skipped in execute
system.cpu0.iew.exec_swp                            0                       # number of swp insts executed
system.cpu0.iew.exec_nop                            0                       # number of nop insts executed
system.cpu0.iew.exec_refs                      878427                       # number of memory reference insts executed
system.cpu0.iew.exec_branches                  650317                       # Number of branches executed
system.cpu0.iew.exec_stores                     51680                       # Number of stores executed
system.cpu0.iew.exec_rate                    0.177751                       # Inst execution rate
system.cpu0.iew.wb_sent                       5333544                       # cumulative count of insts sent to commit
system.cpu0.iew.wb_count                      5317134                       # cumulative count of insts written-back
system.cpu0.iew.wb_producers                  3941506                       # num instructions producing a value
system.cpu0.iew.wb_consumers                  6202879                       # num instructions consuming a value
system.cpu0.iew.wb_rate                      0.174134                       # insts written-back per cycle
system.cpu0.iew.wb_fanout                    0.635432                       # average fanout of values written-back
system.cpu0.commit.commitSquashedInsts        4872746                       # The number of squashed insts skipped by commit
system.cpu0.commit.branchMispredicts            73184                       # The number of times a branch was mispredicted
system.cpu0.commit.committed_per_cycle::samples     29808173                       # Number of insts commited each cycle
system.cpu0.commit.committed_per_cycle::mean     0.097566                       # Number of insts commited each cycle
system.cpu0.commit.committed_per_cycle::stdev     0.576825                       # Number of insts commited each cycle
system.cpu0.commit.committed_per_cycle::underflows            0      0.00%      0.00% # Number of insts commited each cycle
system.cpu0.commit.committed_per_cycle::0     28551296     95.78%     95.78% # Number of insts commited each cycle
system.cpu0.commit.committed_per_cycle::1       580052      1.95%     97.73% # Number of insts commited each cycle
system.cpu0.commit.committed_per_cycle::2       136208      0.46%     98.19% # Number of insts commited each cycle
system.cpu0.commit.committed_per_cycle::3       372460      1.25%     99.44% # Number of insts commited each cycle
system.cpu0.commit.committed_per_cycle::4        68329      0.23%     99.67% # Number of insts commited each cycle
system.cpu0.commit.committed_per_cycle::5        38736      0.13%     99.80% # Number of insts commited each cycle
system.cpu0.commit.committed_per_cycle::6         6460      0.02%     99.82% # Number of insts commited each cycle
system.cpu0.commit.committed_per_cycle::7         4397      0.01%     99.83% # Number of insts commited each cycle
system.cpu0.commit.committed_per_cycle::8        50235      0.17%    100.00% # Number of insts commited each cycle
system.cpu0.commit.committed_per_cycle::overflows            0      0.00%    100.00% # Number of insts commited each cycle
system.cpu0.commit.committed_per_cycle::min_value            0                       # Number of insts commited each cycle
system.cpu0.commit.committed_per_cycle::max_value            8                       # Number of insts commited each cycle
system.cpu0.commit.committed_per_cycle::total     29808173                       # Number of insts commited each cycle
system.cpu0.commit.committedInsts             1455368                       # Number of instructions committed
system.cpu0.commit.committedOps               2908263                       # Number of ops (including micro ops) committed
system.cpu0.commit.swp_count                        0                       # Number of s/w prefetches committed
system.cpu0.commit.refs                        580306                       # Number of memory references committed
system.cpu0.commit.loads                       550880                       # Number of loads committed
system.cpu0.commit.membars                          0                       # Number of memory barriers committed
system.cpu0.commit.branches                    524476                       # Number of branches committed
system.cpu0.commit.vec_insts                        0                       # Number of committed Vector instructions.
system.cpu0.commit.fp_insts                     11736                       # Number of committed floating point instructions.
system.cpu0.commit.int_insts                  2896432                       # Number of committed integer instructions.
system.cpu0.commit.function_calls                5175                       # Number of function calls committed.
system.cpu0.commit.op_class_0::No_OpClass         3503      0.12%      0.12% # Class of committed instruction
system.cpu0.commit.op_class_0::IntAlu         2305792     79.28%     79.40% # Class of committed instruction
system.cpu0.commit.op_class_0::IntMult            207      0.01%     79.41% # Class of committed instruction
system.cpu0.commit.op_class_0::IntDiv            8423      0.29%     79.70% # Class of committed instruction
system.cpu0.commit.op_class_0::FloatAdd         10032      0.34%     80.05% # Class of committed instruction
system.cpu0.commit.op_class_0::FloatCmp             0      0.00%     80.05% # Class of committed instruction
system.cpu0.commit.op_class_0::FloatCvt             0      0.00%     80.05% # Class of committed instruction
system.cpu0.commit.op_class_0::FloatMult            0      0.00%     80.05% # Class of committed instruction
system.cpu0.commit.op_class_0::FloatMultAcc            0      0.00%     80.05% # Class of committed instruction
system.cpu0.commit.op_class_0::FloatDiv             0      0.00%     80.05% # Class of committed instruction
system.cpu0.commit.op_class_0::FloatMisc            0      0.00%     80.05% # Class of committed instruction
system.cpu0.commit.op_class_0::FloatSqrt            0      0.00%     80.05% # Class of committed instruction
system.cpu0.commit.op_class_0::SimdAdd              0      0.00%     80.05% # Class of committed instruction
system.cpu0.commit.op_class_0::SimdAddAcc            0      0.00%     80.05% # Class of committed instruction
system.cpu0.commit.op_class_0::SimdAlu              0      0.00%     80.05% # Class of committed instruction
system.cpu0.commit.op_class_0::SimdCmp              0      0.00%     80.05% # Class of committed instruction
system.cpu0.commit.op_class_0::SimdCvt              0      0.00%     80.05% # Class of committed instruction
system.cpu0.commit.op_class_0::SimdMisc             0      0.00%     80.05% # Class of committed instruction
system.cpu0.commit.op_class_0::SimdMult             0      0.00%     80.05% # Class of committed instruction
system.cpu0.commit.op_class_0::SimdMultAcc            0      0.00%     80.05% # Class of committed instruction
system.cpu0.commit.op_class_0::SimdShift            0      0.00%     80.05% # Class of committed instruction
system.cpu0.commit.op_class_0::SimdShiftAcc            0      0.00%     80.05% # Class of committed instruction
system.cpu0.commit.op_class_0::SimdSqrt             0      0.00%     80.05% # Class of committed instruction
system.cpu0.commit.op_class_0::SimdFloatAdd            0      0.00%     80.05% # Class of committed instruction
system.cpu0.commit.op_class_0::SimdFloatAlu            0      0.00%     80.05% # Class of committed instruction
system.cpu0.commit.op_class_0::SimdFloatCmp            0      0.00%     80.05% # Class of committed instruction
system.cpu0.commit.op_class_0::SimdFloatCvt            0      0.00%     80.05% # Class of committed instruction
system.cpu0.commit.op_class_0::SimdFloatDiv            0      0.00%     80.05% # Class of committed instruction
system.cpu0.commit.op_class_0::SimdFloatMisc            0      0.00%     80.05% # Class of committed instruction
system.cpu0.commit.op_class_0::SimdFloatMult            0      0.00%     80.05% # Class of committed instruction
system.cpu0.commit.op_class_0::SimdFloatMultAcc            0      0.00%     80.05% # Class of committed instruction
system.cpu0.commit.op_class_0::SimdFloatSqrt            0      0.00%     80.05% # Class of committed instruction
system.cpu0.commit.op_class_0::MemRead         549176     18.88%     98.93% # Class of committed instruction
system.cpu0.commit.op_class_0::MemWrite         29426      1.01%     99.94% # Class of committed instruction
system.cpu0.commit.op_class_0::FloatMemRead         1704      0.06%    100.00% # Class of committed instruction
system.cpu0.commit.op_class_0::FloatMemWrite            0      0.00%    100.00% # Class of committed instruction
system.cpu0.commit.op_class_0::IprAccess            0      0.00%    100.00% # Class of committed instruction
system.cpu0.commit.op_class_0::InstPrefetch            0      0.00%    100.00% # Class of committed instruction
system.cpu0.commit.op_class_0::total          2908263                       # Class of committed instruction
system.cpu0.commit.bw_lim_events                50235                       # number cycles where commit BW limit reached
system.cpu0.rob.rob_reads                    37538947                       # The number of ROB reads
system.cpu0.rob.rob_writes                   16246694                       # The number of ROB writes
system.cpu0.timesIdled                            338                       # Number of times that the entire CPU went into an idle state and unscheduled itself
system.cpu0.idleCycles                          43434                       # Total number of cycles that the CPU has spent unscheduled due to idling
system.cpu0.committedInsts                    1455368                       # Number of Instructions Simulated
system.cpu0.committedOps                      2908263                       # Number of Ops (including micro ops) Simulated
system.cpu0.cpi                             20.980733                       # CPI: Cycles Per Instruction
system.cpu0.cpi_total                       20.980733                       # CPI: Total CPI of All Threads
system.cpu0.ipc                              0.047663                       # IPC: Instructions Per Cycle
system.cpu0.ipc_total                        0.047663                       # IPC: Total IPC of All Threads
system.cpu0.int_regfile_reads                 5334135                       # number of integer regfile reads
system.cpu0.int_regfile_writes                4622545                       # number of integer regfile writes
system.cpu0.fp_regfile_reads                    26214                       # number of floating regfile reads
system.cpu0.fp_regfile_writes                   13017                       # number of floating regfile writes
system.cpu0.cc_regfile_reads                  3435938                       # number of cc regfile reads
system.cpu0.cc_regfile_writes                 1449168                       # number of cc regfile writes
system.cpu0.misc_regfile_reads                2877976                       # number of misc regfile reads
system.cpu0.dcache.tags.pwrStateResidencyTicks::UNDEFINED  15267344125                       # Cumulative time (in ticks) in various power states
system.cpu0.dcache.tags.replacements           285492                       # number of replacements
system.cpu0.dcache.tags.tagsinuse                1024                       # Cycle average of tags in use
system.cpu0.dcache.tags.total_refs             343423                       # Total number of references to valid blocks.
system.cpu0.dcache.tags.sampled_refs           285492                       # Sample count of references to valid blocks.
system.cpu0.dcache.tags.avg_refs             1.202916                       # Average number of references to valid blocks.
system.cpu0.dcache.tags.warmup_cycle                0                       # Cycle when the warmup percentage was hit.
system.cpu0.dcache.tags.occ_blocks::cpu0.data         1024                       # Average occupied blocks per requestor
system.cpu0.dcache.tags.occ_percent::cpu0.data            1                       # Average percentage of cache occupancy
system.cpu0.dcache.tags.occ_percent::total            1                       # Average percentage of cache occupancy
system.cpu0.dcache.tags.occ_task_id_blocks::1024         1024                       # Occupied blocks per task id
system.cpu0.dcache.tags.age_task_id_blocks_1024::0          133                       # Occupied blocks per task id
system.cpu0.dcache.tags.age_task_id_blocks_1024::1          806                       # Occupied blocks per task id
system.cpu0.dcache.tags.age_task_id_blocks_1024::2           85                       # Occupied blocks per task id
system.cpu0.dcache.tags.occ_task_id_percent::1024            1                       # Percentage of cache occupancy per task id
system.cpu0.dcache.tags.tag_accesses          3672728                       # Number of tag accesses
system.cpu0.dcache.tags.data_accesses         3672728                       # Number of data accesses
system.cpu0.dcache.pwrStateResidencyTicks::UNDEFINED  15267344125                       # Cumulative time (in ticks) in various power states
system.cpu0.dcache.ReadReq_hits::cpu0.data       315162                       # number of ReadReq hits
system.cpu0.dcache.ReadReq_hits::total         315162                       # number of ReadReq hits
system.cpu0.dcache.WriteReq_hits::cpu0.data        28302                       # number of WriteReq hits
system.cpu0.dcache.WriteReq_hits::total         28302                       # number of WriteReq hits
system.cpu0.dcache.demand_hits::cpu0.data       343464                       # number of demand (read+write) hits
system.cpu0.dcache.demand_hits::total          343464                       # number of demand (read+write) hits
system.cpu0.dcache.overall_hits::cpu0.data       343464                       # number of overall hits
system.cpu0.dcache.overall_hits::total         343464                       # number of overall hits
system.cpu0.dcache.ReadReq_misses::cpu0.data       502221                       # number of ReadReq misses
system.cpu0.dcache.ReadReq_misses::total       502221                       # number of ReadReq misses
system.cpu0.dcache.WriteReq_misses::cpu0.data         1124                       # number of WriteReq misses
system.cpu0.dcache.WriteReq_misses::total         1124                       # number of WriteReq misses
system.cpu0.dcache.demand_misses::cpu0.data       503345                       # number of demand (read+write) misses
system.cpu0.dcache.demand_misses::total        503345                       # number of demand (read+write) misses
system.cpu0.dcache.overall_misses::cpu0.data       503345                       # number of overall misses
system.cpu0.dcache.overall_misses::total       503345                       # number of overall misses
system.cpu0.dcache.ReadReq_miss_latency::cpu0.data  34607611000                       # number of ReadReq miss cycles
system.cpu0.dcache.ReadReq_miss_latency::total  34607611000                       # number of ReadReq miss cycles
system.cpu0.dcache.WriteReq_miss_latency::cpu0.data     40579500                       # number of WriteReq miss cycles
system.cpu0.dcache.WriteReq_miss_latency::total     40579500                       # number of WriteReq miss cycles
system.cpu0.dcache.demand_miss_latency::cpu0.data  34648190500                       # number of demand (read+write) miss cycles
system.cpu0.dcache.demand_miss_latency::total  34648190500                       # number of demand (read+write) miss cycles
system.cpu0.dcache.overall_miss_latency::cpu0.data  34648190500                       # number of overall miss cycles
system.cpu0.dcache.overall_miss_latency::total  34648190500                       # number of overall miss cycles
system.cpu0.dcache.ReadReq_accesses::cpu0.data       817383                       # number of ReadReq accesses(hits+misses)
system.cpu0.dcache.ReadReq_accesses::total       817383                       # number of ReadReq accesses(hits+misses)
system.cpu0.dcache.WriteReq_accesses::cpu0.data        29426                       # number of WriteReq accesses(hits+misses)
system.cpu0.dcache.WriteReq_accesses::total        29426                       # number of WriteReq accesses(hits+misses)
system.cpu0.dcache.demand_accesses::cpu0.data       846809                       # number of demand (read+write) accesses
system.cpu0.dcache.demand_accesses::total       846809                       # number of demand (read+write) accesses
system.cpu0.dcache.overall_accesses::cpu0.data       846809                       # number of overall (read+write) accesses
system.cpu0.dcache.overall_accesses::total       846809                       # number of overall (read+write) accesses
system.cpu0.dcache.ReadReq_miss_rate::cpu0.data     0.614426                       # miss rate for ReadReq accesses
system.cpu0.dcache.ReadReq_miss_rate::total     0.614426                       # miss rate for ReadReq accesses
system.cpu0.dcache.WriteReq_miss_rate::cpu0.data     0.038198                       # miss rate for WriteReq accesses
system.cpu0.dcache.WriteReq_miss_rate::total     0.038198                       # miss rate for WriteReq accesses
system.cpu0.dcache.demand_miss_rate::cpu0.data     0.594402                       # miss rate for demand accesses
system.cpu0.dcache.demand_miss_rate::total     0.594402                       # miss rate for demand accesses
system.cpu0.dcache.overall_miss_rate::cpu0.data     0.594402                       # miss rate for overall accesses
system.cpu0.dcache.overall_miss_rate::total     0.594402                       # miss rate for overall accesses
system.cpu0.dcache.ReadReq_avg_miss_latency::cpu0.data 68909.127655                       # average ReadReq miss latency
system.cpu0.dcache.ReadReq_avg_miss_latency::total 68909.127655                       # average ReadReq miss latency
system.cpu0.dcache.WriteReq_avg_miss_latency::cpu0.data 36102.758007                       # average WriteReq miss latency
system.cpu0.dcache.WriteReq_avg_miss_latency::total 36102.758007                       # average WriteReq miss latency
system.cpu0.dcache.demand_avg_miss_latency::cpu0.data 68835.869036                       # average overall miss latency
[...]
system.l2.ReadSharedReq_hits::cpu0.data         98668                       # number of ReadSharedReq hits
system.l2.ReadSharedReq_hits::total             98668                       # number of ReadSharedReq hits
system.l2.demand_hits::cpu0.data                99508                       # number of demand (read+write) hits
system.l2.demand_hits::total                    99508                       # number of demand (read+write) hits
system.l2.overall_hits::cpu0.data               99508                       # number of overall hits
system.l2.overall_hits::total                   99508                       # number of overall hits
system.l2.ReadExReq_misses::cpu0.data             276                       # number of ReadExReq misses
system.l2.ReadExReq_misses::total                 276                       # number of ReadExReq misses
system.l2.ReadSharedReq_misses::cpu0.data       185708                       # number of ReadSharedReq misses
system.l2.ReadSharedReq_misses::total          185708                       # number of ReadSharedReq misses
system.l2.demand_misses::cpu0.data             185984                       # number of demand (read+write) misses
system.l2.demand_misses::total                 185984                       # number of demand (read+write) misses
system.l2.overall_misses::cpu0.data            185984                       # number of overall misses
system.l2.overall_misses::total                185984                       # number of overall misses
system.l2.ReadExReq_miss_latency::cpu0.data     28132000                       # number of ReadExReq miss cycles
system.l2.ReadExReq_miss_latency::total      28132000                       # number of ReadExReq miss cycles
system.l2.ReadSharedReq_miss_latency::cpu0.data  17653345500                       # number of ReadSharedReq miss cycles
system.l2.ReadSharedReq_miss_latency::total  17653345500                       # number of ReadSharedReq miss cycles
system.l2.demand_miss_latency::cpu0.data  17681477500                       # number of demand (read+write) miss cycles
system.l2.demand_miss_latency::total      17681477500                       # number of demand (read+write) miss cycles
system.l2.overall_miss_latency::cpu0.data  17681477500                       # number of overall miss cycles
system.l2.overall_miss_latency::total     17681477500                       # number of overall miss cycles
system.l2.WritebackDirty_accesses::writebacks         2998                       # number of WritebackDirty accesses(hits+misses)
system.l2.WritebackDirty_accesses::total         2998                       # number of WritebackDirty accesses(hits+misses)
system.l2.ReadExReq_accesses::cpu0.data          1116                       # number of ReadExReq accesses(hits+misses)
system.l2.ReadExReq_accesses::total              1116                       # number of ReadExReq accesses(hits+misses)
system.l2.ReadSharedReq_accesses::cpu0.data       284376                       # number of ReadSharedReq accesses(hits+misses)
system.l2.ReadSharedReq_accesses::total        284376                       # number of ReadSharedReq accesses(hits+misses)
system.l2.demand_accesses::cpu0.data           285492                       # number of demand (read+write) accesses
system.l2.demand_accesses::total               285492                       # number of demand (read+write) accesses
system.l2.overall_accesses::cpu0.data          285492                       # number of overall (read+write) accesses
system.l2.overall_accesses::total              285492                       # number of overall (read+write) accesses
system.l2.ReadExReq_miss_rate::cpu0.data     0.247312                       # miss rate for ReadExReq accesses
system.l2.ReadExReq_miss_rate::total         0.247312                       # miss rate for ReadExReq accesses
system.l2.ReadSharedReq_miss_rate::cpu0.data     0.653037                       # miss rate for ReadSharedReq accesses
system.l2.ReadSharedReq_miss_rate::total     0.653037                       # miss rate for ReadSharedReq accesses
system.l2.demand_miss_rate::cpu0.data        0.651451                       # miss rate for demand accesses
system.l2.demand_miss_rate::total            0.651451                       # miss rate for demand accesses
system.l2.overall_miss_rate::cpu0.data       0.651451                       # miss rate for overall accesses
system.l2.overall_miss_rate::total           0.651451                       # miss rate for overall accesses
system.l2.ReadExReq_avg_miss_latency::cpu0.data 101927.536232                       # average ReadExReq miss latency
system.l2.ReadExReq_avg_miss_latency::total 101927.536232                       # average ReadExReq miss latency
system.l2.ReadSharedReq_avg_miss_latency::cpu0.data 95059.693174                       # average ReadSharedReq miss latency
system.l2.ReadSharedReq_avg_miss_latency::total 95059.693174                       # average ReadSharedReq miss latency
system.l2.demand_avg_miss_latency::cpu0.data 95069.885044                       # average overall miss latency
system.l2.demand_avg_miss_latency::total 95069.885044                       # average overall miss latency
system.l2.overall_avg_miss_latency::cpu0.data 95069.885044                       # average overall miss latency
system.l2.overall_avg_miss_latency::total 95069.885044                       # average overall miss latency
system.l2.blocked_cycles::no_mshrs                  0                       # number of cycles access was blocked
system.l2.blocked_cycles::no_targets                0                       # number of cycles access was blocked
system.l2.blocked::no_mshrs                         0                       # number of cycles access was blocked
system.l2.blocked::no_targets                       0                       # number of cycles access was blocked
system.l2.avg_blocked_cycles::no_mshrs            nan                       # average number of cycles each access was blocked
system.l2.avg_blocked_cycles::no_targets          nan                       # average number of cycles each access was blocked
system.l2.writebacks::writebacks                  401                       # number of writebacks
system.l2.writebacks::total                       401                       # number of writebacks
system.l2.ReadExReq_mshr_misses::cpu0.data          276                       # number of ReadExReq MSHR misses
system.l2.ReadExReq_mshr_misses::total            276                       # number of ReadExReq MSHR misses
system.l2.ReadSharedReq_mshr_misses::cpu0.data       185708                       # number of ReadSharedReq MSHR misses
system.l2.ReadSharedReq_mshr_misses::total       185708                       # number of ReadSharedReq MSHR misses
system.l2.demand_mshr_misses::cpu0.data        185984                       # number of demand (read+write) MSHR misses
system.l2.demand_mshr_misses::total            185984                       # number of demand (read+write) MSHR misses
system.l2.overall_mshr_misses::cpu0.data       185984                       # number of overall MSHR misses
system.l2.overall_mshr_misses::total           185984                       # number of overall MSHR misses
system.l2.ReadExReq_mshr_miss_latency::cpu0.data     25372000                       # number of ReadExReq MSHR miss cycles
system.l2.ReadExReq_mshr_miss_latency::total     25372000                       # number of ReadExReq MSHR miss cycles
system.l2.ReadSharedReq_mshr_miss_latency::cpu0.data  15796265500                       # number of ReadSharedReq MSHR miss cycles
system.l2.ReadSharedReq_mshr_miss_latency::total  15796265500                       # number of ReadSharedReq MSHR miss cycles
system.l2.demand_mshr_miss_latency::cpu0.data  15821637500                       # number of demand (read+write) MSHR miss cycles
system.l2.demand_mshr_miss_latency::total  15821637500                       # number of demand (read+write) MSHR miss cycles
system.l2.overall_mshr_miss_latency::cpu0.data  15821637500                       # number of overall MSHR miss cycles
system.l2.overall_mshr_miss_latency::total  15821637500                       # number of overall MSHR miss cycles
system.l2.ReadExReq_mshr_miss_rate::cpu0.data     0.247312                       # mshr miss rate for ReadExReq accesses
system.l2.ReadExReq_mshr_miss_rate::total     0.247312                       # mshr miss rate for ReadExReq accesses
system.l2.ReadSharedReq_mshr_miss_rate::cpu0.data     0.653037                       # mshr miss rate for ReadSharedReq accesses
system.l2.ReadSharedReq_mshr_miss_rate::total     0.653037                       # mshr miss rate for ReadSharedReq accesses
system.l2.demand_mshr_miss_rate::cpu0.data     0.651451                       # mshr miss rate for demand accesses
system.l2.demand_mshr_miss_rate::total       0.651451                       # mshr miss rate for demand accesses
system.l2.overall_mshr_miss_rate::cpu0.data     0.651451                       # mshr miss rate for overall accesses
system.l2.overall_mshr_miss_rate::total      0.651451                       # mshr miss rate for overall accesses
system.l2.ReadExReq_avg_mshr_miss_latency::cpu0.data 91927.536232                       # average ReadExReq mshr miss latency
system.l2.ReadExReq_avg_mshr_miss_latency::total 91927.536232                       # average ReadExReq mshr miss latency
system.l2.ReadSharedReq_avg_mshr_miss_latency::cpu0.data 85059.693174                       # average ReadSharedReq mshr miss latency
system.l2.ReadSharedReq_avg_mshr_miss_latency::total 85059.693174                       # average ReadSharedReq mshr miss latency
system.l2.demand_avg_mshr_miss_latency::cpu0.data 85069.885044                       # average overall mshr miss latency
system.l2.demand_avg_mshr_miss_latency::total 85069.885044                       # average overall mshr miss latency
system.l2.overall_avg_mshr_miss_latency::cpu0.data 85069.885044                       # average overall mshr miss latency
system.l2.overall_avg_mshr_miss_latency::total 85069.885044                       # average overall mshr miss latency
system.membus.snoop_filter.tot_requests        371964                       # Total number of requests made to the snoop filter.
system.membus.snoop_filter.hit_single_requests       185983                       # Number of requests hitting in the snoop filter with a single holder of the requested data.
system.membus.snoop_filter.hit_multi_requests            0                       # Number of requests hitting in the snoop filter with multiple (>1) holders of the requested data.
system.membus.snoop_filter.tot_snoops               0                       # Total number of snoops made to the snoop filter.
system.membus.snoop_filter.hit_single_snoops            0                       # Number of snoops hitting in the snoop filter with a single holder of the requested data.
system.membus.snoop_filter.hit_multi_snoops            0                       # Number of snoops hitting in the snoop filter with multiple (>1) holders of the requested data.
system.membus.pwrStateResidencyTicks::UNDEFINED  15267344125                       # Cumulative time (in ticks) in various power states
system.membus.trans_dist::ReadResp             185708                       # Transaction distribution
system.membus.trans_dist::WritebackDirty          401                       # Transaction distribution
system.membus.trans_dist::CleanEvict           185579                       # Transaction distribution
system.membus.trans_dist::ReadExReq               276                       # Transaction distribution
system.membus.trans_dist::ReadExResp              276                       # Transaction distribution
system.membus.trans_dist::ReadSharedReq        185708                       # Transaction distribution
system.membus.pkt_count_system.l2.mem_side::system.mem_ctrls.port       557948                       # Packet count per connected master and slave (bytes)
system.membus.pkt_count_system.l2.mem_side::total       557948                       # Packet count per connected master and slave (bytes)
system.membus.pkt_count::total                 557948                       # Packet count per connected master and slave (bytes)
system.membus.pkt_size_system.l2.mem_side::system.mem_ctrls.port     11928640                       # Cumulative packet size per connected master and slave (bytes)
system.membus.pkt_size_system.l2.mem_side::total     11928640                       # Cumulative packet size per connected master and slave (bytes)
system.membus.pkt_size::total                11928640                       # Cumulative packet size per connected master and slave (bytes)
system.membus.snoops                                0                       # Total snoops (count)
system.membus.snoopTraffic                          0                       # Total snoop traffic (bytes)
system.membus.snoop_fanout::samples            185984                       # Request fanout histogram
system.membus.snoop_fanout::mean                    0                       # Request fanout histogram
system.membus.snoop_fanout::stdev                   0                       # Request fanout histogram
system.membus.snoop_fanout::underflows              0      0.00%      0.00% # Request fanout histogram
system.membus.snoop_fanout::0                  185984    100.00%    100.00% # Request fanout histogram
system.membus.snoop_fanout::1                       0      0.00%    100.00% # Request fanout histogram
system.membus.snoop_fanout::overflows               0      0.00%    100.00% # Request fanout histogram
system.membus.snoop_fanout::min_value               0                       # Request fanout histogram
system.membus.snoop_fanout::max_value               0                       # Request fanout histogram
system.membus.snoop_fanout::total              185984                       # Request fanout histogram
system.membus.reqLayer8.occupancy           436825000                       # Layer occupancy (ticks)
system.membus.reqLayer8.utilization               2.9                       # Layer utilization (%)
system.membus.respLayer1.occupancy         1007718500                       # Layer occupancy (ticks)
system.membus.respLayer1.utilization              6.6                       # Layer utilization (%)
system.tol2bus.snoop_filter.tot_requests       570984                       # Total number of requests made to the snoop filter.
system.tol2bus.snoop_filter.hit_single_requests       285493                       # Number of requests hitting in the snoop filter with a single holder of the requested data.
system.tol2bus.snoop_filter.hit_multi_requests          393                       # Number of requests hitting in the snoop filter with multiple (>1) holders of the requested data.
system.tol2bus.snoop_filter.tot_snoops              4                       # Total number of snoops made to the snoop filter.
system.tol2bus.snoop_filter.hit_single_snoops            4                       # Number of snoops hitting in the snoop filter with a single holder of the requested data.
system.tol2bus.snoop_filter.hit_multi_snoops            0                       # Number of snoops hitting in the snoop filter with multiple (>1) holders of the requested data.
system.tol2bus.pwrStateResidencyTicks::UNDEFINED  15267344125                       # Cumulative time (in ticks) in various power states
system.tol2bus.trans_dist::ReadResp            284376                       # Transaction distribution
system.tol2bus.trans_dist::WritebackDirty         3399                       # Transaction distribution
system.tol2bus.trans_dist::CleanEvict          468077                       # Transaction distribution
system.tol2bus.trans_dist::ReadExReq             1116                       # Transaction distribution
system.tol2bus.trans_dist::ReadExResp            1116                       # Transaction distribution
system.tol2bus.trans_dist::ReadSharedReq       284376                       # Transaction distribution
system.tol2bus.pkt_count_system.cpu0.dcache.mem_side::system.l2.cpu_side       856476                       # Packet count per connected master and slave (bytes)
system.tol2bus.pkt_count::total                856476                       # Packet count per connected master and slave (bytes)
system.tol2bus.pkt_size_system.cpu0.dcache.mem_side::system.l2.cpu_side     18463360                       # Cumulative packet size per connected master and slave (bytes)
system.tol2bus.pkt_size::total               18463360                       # Cumulative packet size per connected master and slave (bytes)
system.tol2bus.snoops                          185984                       # Total snoops (count)
system.tol2bus.snoopTraffic                     25664                       # Total snoop traffic (bytes)
system.tol2bus.snoop_fanout::samples           471476                       # Request fanout histogram
system.tol2bus.snoop_fanout::mean            0.000844                       # Request fanout histogram
system.tol2bus.snoop_fanout::stdev           0.029042                       # Request fanout histogram
system.tol2bus.snoop_fanout::underflows             0      0.00%      0.00% # Request fanout histogram
system.tol2bus.snoop_fanout::0                 471078     99.92%     99.92% # Request fanout histogram
system.tol2bus.snoop_fanout::1                    398      0.08%    100.00% # Request fanout histogram
system.tol2bus.snoop_fanout::2                      0      0.00%    100.00% # Request fanout histogram
system.tol2bus.snoop_fanout::3                      0      0.00%    100.00% # Request fanout histogram
system.tol2bus.snoop_fanout::4                      0      0.00%    100.00% # Request fanout histogram
system.tol2bus.snoop_fanout::5                      0      0.00%    100.00% # Request fanout histogram
system.tol2bus.snoop_fanout::6                      0      0.00%    100.00% # Request fanout histogram
system.tol2bus.snoop_fanout::7                      0      0.00%    100.00% # Request fanout histogram
system.tol2bus.snoop_fanout::8                      0      0.00%    100.00% # Request fanout histogram
system.tol2bus.snoop_fanout::9                      0      0.00%    100.00% # Request fanout histogram
system.tol2bus.snoop_fanout::10                     0      0.00%    100.00% # Request fanout histogram
system.tol2bus.snoop_fanout::11                     0      0.00%    100.00% # Request fanout histogram
system.tol2bus.snoop_fanout::12                     0      0.00%    100.00% # Request fanout histogram
system.tol2bus.snoop_fanout::13                     0      0.00%    100.00% # Request fanout histogram
system.tol2bus.snoop_fanout::14                     0      0.00%    100.00% # Request fanout histogram
system.tol2bus.snoop_fanout::15                     0      0.00%    100.00% # Request fanout histogram
system.tol2bus.snoop_fanout::16                     0      0.00%    100.00% # Request fanout histogram
system.tol2bus.snoop_fanout::overflows              0      0.00%    100.00% # Request fanout histogram
system.tol2bus.snoop_fanout::min_value              0                       # Request fanout histogram
system.tol2bus.snoop_fanout::max_value              1                       # Request fanout histogram
system.tol2bus.snoop_fanout::total             471476                       # Request fanout histogram
system.tol2bus.reqLayer0.occupancy          288490000                       # Layer occupancy (ticks)
system.tol2bus.reqLayer0.utilization              1.9                       # Layer utilization (%)
system.tol2bus.respLayer1.occupancy         428238000                       # Layer occupancy (ticks)
system.tol2bus.respLayer1.utilization             2.8                       # Layer utilization (%)

---------- End Simulation Statistics   ----------
