
---------- Begin Simulation Statistics ----------
sim_seconds                                  0.015267                       # Number of seconds simulated
sim_ticks                                 15267344125                       # Number of ticks simulated
final_tick                               7480998621250                       # Number of ticks from beginning of simulation (restored from checkpoints and never reset)
sim_freq                                 1000000000000                       # Frequency of simulated ticks
host_inst_rate                              124263080                       # Simulator instruction rate (inst/s)
host_op_rate                                231666086                       # Simulator op (including micro ops) rate (op/s)
host_tick_rate                              313422703                       # Simulator tick rate (ticks/s)
host_mem_usage                                2332640                       # Number of bytes of host memory used
host_seconds                                    48.71                       # Real time elapsed on the host
sim_insts                                  6053057891                       # Number of instructions simulated
sim_ops                                   11284838754                       # Number of ops (including micro ops) simulated
system.voltage_domain.voltage                       1                       # Voltage in Volts
system.clk_domain.clock                          1000                       # Clock period in ticks
system.mem_ctrls.pwrStateResidencyTicks::UNDEFINED  15267344125                       # Cumulative time (in ticks) in various power states
system.mem_ctrls.bytes_read::cpu0.data       12305728                       # Number of bytes read from this memory
system.mem_ctrls.bytes_read::total           12305728                       # Number of bytes read from this memory
system.mem_ctrls.bytes_written::writebacks        18880                       # Number of bytes written to this memory
system.mem_ctrls.bytes_written::total           18880                       # Number of bytes written to this memory
system.mem_ctrls.num_reads::cpu0.data          192277                       # Number of read requests responded to by this memory
system.mem_ctrls.num_reads::total              192277                       # Number of read requests responded to by this memory
system.mem_ctrls.num_writes::writebacks           295                       # Number of write requests responded to by this memory
system.mem_ctrls.num_writes::total                295                       # Number of write requests responded to by this memory
system.mem_ctrls.bw_read::cpu0.data         806016285                       # Total read bandwidth from this memory (bytes/s)
system.mem_ctrls.bw_read::total             806016285                       # Total read bandwidth from this memory (bytes/s)
system.mem_ctrls.bw_write::writebacks         1236626                       # Write bandwidth from this memory (bytes/s)
system.mem_ctrls.bw_write::total              1236626                       # Write bandwidth from this memory (bytes/s)
system.mem_ctrls.bw_total::writebacks         1236626                       # Total bandwidth to/from this memory (bytes/s)
system.mem_ctrls.bw_total::cpu0.data        806016285                       # Total bandwidth to/from this memory (bytes/s)
system.mem_ctrls.bw_total::total            807252912                       # Total bandwidth to/from this memory (bytes/s)
system.mem_ctrls.readReqs                      192277                       # Number of read requests accepted
system.mem_ctrls.writeReqs                        295                       # Number of write requests accepted
system.mem_ctrls.readBursts                    192277                       # Number of DRAM read bursts, including those serviced by the write queue
system.mem_ctrls.writeBursts                      295                       # Number of DRAM write bursts, including those merged in the write queue
system.mem_ctrls.bytesReadDRAM               12302912                       # Total number of bytes read from DRAM
system.mem_ctrls.bytesReadWrQ                    2816                       # Total number of bytes read from write queue
system.mem_ctrls.bytesWritten                   18432                       # Total number of bytes written to DRAM
system.mem_ctrls.bytesReadSys                12305728                       # Total read bytes from the system interface side
system.mem_ctrls.bytesWrittenSys                18880                       # Total written bytes from the system interface side
system.mem_ctrls.servicedByWrQ                     44                       # Number of DRAM read bursts serviced by the write queue
system.mem_ctrls.mergedWrBursts                     0                       # Number of DRAM write bursts merged with an existing one
system.mem_ctrls.neitherReadNorWriteReqs            0                       # Number of requests that are neither read nor write
system.mem_ctrls.perBankRdBursts::0             11871                       # Per bank write bursts
system.mem_ctrls.perBankRdBursts::1             12010                       # Per bank write bursts
system.mem_ctrls.perBankRdBursts::2             11860                       # Per bank write bursts
system.mem_ctrls.perBankRdBursts::3             11860                       # Per bank write bursts
system.mem_ctrls.perBankRdBursts::4             11861                       # Per bank write bursts
system.mem_ctrls.perBankRdBursts::5             11968                       # Per bank write bursts
system.mem_ctrls.perBankRdBursts::6             12023                       # Per bank write bursts
system.mem_ctrls.perBankRdBursts::7             12046                       # Per bank write bursts
system.mem_ctrls.perBankRdBursts::8             12047                       # Per bank write bursts
system.mem_ctrls.perBankRdBursts::9             11848                       # Per bank write bursts
system.mem_ctrls.perBankRdBursts::10            11986                       # Per bank write bursts
system.mem_ctrls.perBankRdBursts::11            12153                       # Per bank write bursts
system.mem_ctrls.perBankRdBursts::12            12324                       # Per bank write bursts
system.mem_ctrls.perBankRdBursts::13            12211                       # Per bank write bursts
system.mem_ctrls.perBankRdBursts::14            12107                       # Per bank write bursts
system.mem_ctrls.perBankRdBursts::15            12058                       # Per bank write bursts
system.mem_ctrls.perBankWrBursts::0                 0                       # Per bank write bursts
system.mem_ctrls.perBankWrBursts::1                19                       # Per bank write bursts
system.mem_ctrls.perBankWrBursts::2                 0                       # Per bank write bursts
system.mem_ctrls.perBankWrBursts::3                 0                       # Per bank write bursts
system.mem_ctrls.perBankWrBursts::4                 0                       # Per bank write bursts
system.mem_ctrls.perBankWrBursts::5                 8                       # Per bank write bursts
system.mem_ctrls.perBankWrBursts::6                 0                       # Per bank write bursts
system.mem_ctrls.perBankWrBursts::7                 0                       # Per bank write bursts
system.mem_ctrls.perBankWrBursts::8                 0                       # Per bank write bursts
system.mem_ctrls.perBankWrBursts::9                 0                       # Per bank write bursts
system.mem_ctrls.perBankWrBursts::10               18                       # Per bank write bursts
system.mem_ctrls.perBankWrBursts::11              128                       # Per bank write bursts
system.mem_ctrls.perBankWrBursts::12              115                       # Per bank write bursts
system.mem_ctrls.perBankWrBursts::13                0                       # Per bank write bursts
system.mem_ctrls.perBankWrBursts::14                0                       # Per bank write bursts
system.mem_ctrls.perBankWrBursts::15                0                       # Per bank write bursts
system.mem_ctrls.numRdRetry                         0                       # Number of times read queue was full causing retry
system.mem_ctrls.numWrRetry                         0                       # Number of times write queue was full causing retry
system.mem_ctrls.totGap                   15267353000                       # Total gap between requests
system.mem_ctrls.readPktSize::0                     0                       # Read request sizes (log2)
system.mem_ctrls.readPktSize::1                     0                       # Read request sizes (log2)
system.mem_ctrls.readPktSize::2                     0                       # Read request sizes (log2)
system.mem_ctrls.readPktSize::3                     0                       # Read request sizes (log2)
system.mem_ctrls.readPktSize::4                     0                       # Read request sizes (log2)
system.mem_ctrls.readPktSize::5                     0                       # Read request sizes (log2)
system.mem_ctrls.readPktSize::6                192277                       # Read request sizes (log2)
system.mem_ctrls.writePktSize::0                    0                       # Write request sizes (log2)
system.mem_ctrls.writePktSize::1                    0                       # Write request sizes (log2)
system.mem_ctrls.writePktSize::2                    0                       # Write request sizes (log2)
system.mem_ctrls.writePktSize::3                    0                       # Write request sizes (log2)
system.mem_ctrls.writePktSize::4                    0                       # Write request sizes (log2)
system.mem_ctrls.writePktSize::5                    0                       # Write request sizes (log2)
system.mem_ctrls.writePktSize::6                  295                       # Write request sizes (log2)
system.mem_ctrls.rdQLenPdf::0                  145918                       # What read queue length does an incoming req see
system.mem_ctrls.rdQLenPdf::1                   43261                       # What read queue length does an incoming req see
system.mem_ctrls.rdQLenPdf::2                    3007                       # What read queue length does an incoming req see
system.mem_ctrls.rdQLenPdf::3                      47                       # What read queue length does an incoming req see
system.mem_ctrls.rdQLenPdf::4                       0                       # What read queue length does an incoming req see
system.mem_ctrls.rdQLenPdf::5                       0                       # What read queue length does an incoming req see
system.mem_ctrls.rdQLenPdf::6                       0                       # What read queue length does an incoming req see
system.mem_ctrls.rdQLenPdf::7                       0                       # What read queue length does an incoming req see
system.mem_ctrls.rdQLenPdf::8                       0                       # What read queue length does an incoming req see
system.mem_ctrls.rdQLenPdf::9                       0                       # What read queue length does an incoming req see
system.mem_ctrls.rdQLenPdf::10                      0                       # What read queue length does an incoming req see
system.mem_ctrls.rdQLenPdf::11                      0                       # What read queue length does an incoming req see
system.mem_ctrls.rdQLenPdf::12                      0                       # What read queue length does an incoming req see
system.mem_ctrls.rdQLenPdf::13                      0                       # What read queue length does an incoming req see
system.mem_ctrls.rdQLenPdf::14                      0                       # What read queue length does an incoming req see
system.mem_ctrls.rdQLenPdf::15                      0                       # What read queue length does an incoming req see
system.mem_ctrls.rdQLenPdf::16                      0                       # What read queue length does an incoming req see
system.mem_ctrls.rdQLenPdf::17                      0                       # What read queue length does an incoming req see
system.mem_ctrls.rdQLenPdf::18                      0                       # What read queue length does an incoming req see
system.mem_ctrls.rdQLenPdf::19                      0                       # What read queue length does an incoming req see
system.mem_ctrls.rdQLenPdf::20                      0                       # What read queue length does an incoming req see
system.mem_ctrls.rdQLenPdf::21                      0                       # What read queue length does an incoming req see
system.mem_ctrls.rdQLenPdf::22                      0                       # What read queue length does an incoming req see
system.mem_ctrls.rdQLenPdf::23                      0                       # What read queue length does an incoming req see
system.mem_ctrls.rdQLenPdf::24                      0                       # What read queue length does an incoming req see
system.mem_ctrls.rdQLenPdf::25                      0                       # What read queue length does an incoming req see
system.mem_ctrls.rdQLenPdf::26                      0                       # What read queue length does an incoming req see
system.mem_ctrls.rdQLenPdf::27                      0                       # What read queue length does an incoming req see
system.mem_ctrls.rdQLenPdf::28                      0                       # What read queue length does an incoming req see
system.mem_ctrls.rdQLenPdf::29                      0                       # What read queue length does an incoming req see
system.mem_ctrls.rdQLenPdf::30                      0                       # What read queue length does an incoming req see
system.mem_ctrls.rdQLenPdf::31                      0                       # What read queue length does an incoming req see
system.mem_ctrls.wrQLenPdf::0                       0                       # What write queue length does an incoming req see
system.mem_ctrls.wrQLenPdf::1                       0                       # What write queue length does an incoming req see
system.mem_ctrls.wrQLenPdf::2                       0                       # What write queue length does an incoming req see
system.mem_ctrls.wrQLenPdf::3                       0                       # What write queue length does an incoming req see
system.mem_ctrls.wrQLenPdf::4                       0                       # What write queue length does an incoming req see
system.mem_ctrls.wrQLenPdf::5                       0                       # What write queue length does an incoming req see
system.mem_ctrls.wrQLenPdf::6                       0                       # What write queue length does an incoming req see
system.mem_ctrls.wrQLenPdf::7                       0                       # What write queue length does an incoming req see
system.mem_ctrls.wrQLenPdf::8                       0                       # What write queue length does an incoming req see
system.mem_ctrls.wrQLenPdf::9                       0                       # What write queue length does an incoming req see
system.mem_ctrls.wrQLenPdf::10                      0                       # What write queue length does an incoming req see
system.mem_ctrls.wrQLenPdf::11                      0                       # What write queue length does an incoming req see
system.mem_ctrls.wrQLenPdf::12                      0                       # What write queue length does an incoming req see
system.mem_ctrls.wrQLenPdf::13                      0                       # What write queue length does an incoming req see
system.mem_ctrls.wrQLenPdf::14                      0                       # What write queue length does an incoming req see
system.mem_ctrls.wrQLenPdf::15                      0                       # What write queue length does an incoming req see
system.mem_ctrls.wrQLenPdf::16                      0                       # What write queue length does an incoming req see
system.mem_ctrls.wrQLenPdf::17                     17                       # What write queue length does an incoming req see
system.mem_ctrls.wrQLenPdf::18                     18                       # What write queue length does an incoming req see
system.mem_ctrls.wrQLenPdf::19                     18                       # What write queue length does an incoming req see
system.mem_ctrls.wrQLenPdf::20                     18                       # What write queue length does an incoming req see
system.mem_ctrls.wrQLenPdf::21                     18                       # What write queue length does an incoming req see
system.mem_ctrls.wrQLenPdf::22                     18                       # What write queue length does an incoming req see
system.mem_ctrls.wrQLenPdf::23                     19                       # What write queue length does an incoming req see
system.mem_ctrls.wrQLenPdf::24                     19                       # What write queue length does an incoming req see
system.mem_ctrls.wrQLenPdf::25                     19                       # What write queue length does an incoming req see
system.mem_ctrls.wrQLenPdf::26                     19                       # What write queue length does an incoming req see
system.mem_ctrls.wrQLenPdf::27                     19                       # What write queue length does an incoming req see
system.mem_ctrls.wrQLenPdf::28                     19                       # What write queue length does an incoming req see
system.mem_ctrls.wrQLenPdf::29                     19                       # What write queue length does an incoming req see
system.mem_ctrls.wrQLenPdf::30                     18                       # What write queue length does an incoming req see
system.mem_ctrls.wrQLenPdf::31                     18                       # What write queue length does an incoming req see
system.mem_ctrls.wrQLenPdf::32                     19                       # What write queue length does an incoming req see
system.mem_ctrls.wrQLenPdf::33                      0                       # What write queue length does an incoming req see
system.mem_ctrls.wrQLenPdf::34                      0                       # What write queue length does an incoming req see
system.mem_ctrls.wrQLenPdf::35                      0                       # What write queue length does an incoming req see
system.mem_ctrls.wrQLenPdf::36                      0                       # What write queue length does an incoming req see
system.mem_ctrls.wrQLenPdf::37                      0                       # What write queue length does an incoming req see
system.mem_ctrls.wrQLenPdf::38                      0                       # What write queue length does an incoming req see
system.mem_ctrls.wrQLenPdf::39                      0                       # What write queue length does an incoming req see
system.mem_ctrls.wrQLenPdf::40                      0                       # What write queue length does an incoming req see
system.mem_ctrls.wrQLenPdf::41                      0                       # What write queue length does an incoming req see
system.mem_ctrls.wrQLenPdf::42                      0                       # What write queue length does an incoming req see
system.mem_ctrls.wrQLenPdf::43                      0                       # What write queue length does an incoming req see
system.mem_ctrls.wrQLenPdf::44                      0                       # What write queue length does an incoming req see
system.mem_ctrls.wrQLenPdf::45                      0                       # What write queue length does an incoming req see
system.mem_ctrls.wrQLenPdf::46                      0                       # What write queue length does an incoming req see
system.mem_ctrls.wrQLenPdf::47                      0                       # What write queue length does an incoming req see
system.mem_ctrls.wrQLenPdf::48                      0                       # What write queue length does an incoming req see
system.mem_ctrls.wrQLenPdf::49                      0                       # What write queue length does an incoming req see
system.mem_ctrls.wrQLenPdf::50                      0                       # What write queue length does an incoming req see
system.mem_ctrls.wrQLenPdf::51                      0                       # What write queue length does an incoming req see
system.mem_ctrls.wrQLenPdf::52                      0                       # What write queue length does an incoming req see
system.mem_ctrls.wrQLenPdf::53                      0                       # What write queue length does an incoming req see
system.mem_ctrls.wrQLenPdf::54                      0                       # What write queue length does an incoming req see
system.mem_ctrls.wrQLenPdf::55                      0                       # What write queue length does an incoming req see
system.mem_ctrls.wrQLenPdf::56                      0                       # What write queue length does an incoming req see
system.mem_ctrls.wrQLenPdf::57                      0                       # What write queue length does an incoming req see
system.mem_ctrls.wrQLenPdf::58                      0                       # What write queue length does an incoming req see
system.mem_ctrls.wrQLenPdf::59                      0                       # What write queue length does an incoming req see
system.mem_ctrls.wrQLenPdf::60                      0                       # What write queue length does an incoming req see
system.mem_ctrls.wrQLenPdf::61                      0                       # What write queue length does an incoming req see
system.mem_ctrls.wrQLenPdf::62                      0                       # What write queue length does an incoming req see
system.mem_ctrls.wrQLenPdf::63                      0                       # What write queue length does an incoming req see
system.mem_ctrls.bytesPerActivate::samples        98070                       # Bytes accessed per row activation
system.mem_ctrls.bytesPerActivate::mean    125.639564                       # Bytes accessed per row activation
system.mem_ctrls.bytesPerActivate::gmean   108.154518                       # Bytes accessed per row activation
system.mem_ctrls.bytesPerActivate::stdev    75.086914                       # Bytes accessed per row activation
system.mem_ctrls.bytesPerActivate::0-127        44022     44.89%     44.89% # Bytes accessed per row activation
system.mem_ctrls.bytesPerActivate::128-255        43777     44.64%     89.53% # Bytes accessed per row activation
system.mem_ctrls.bytesPerActivate::256-383         8949      9.13%     98.65% # Bytes accessed per row activation
system.mem_ctrls.bytesPerActivate::384-511         1189      1.21%     99.86% # Bytes accessed per row activation
system.mem_ctrls.bytesPerActivate::512-639          111      0.11%     99.98% # Bytes accessed per row activation
system.mem_ctrls.bytesPerActivate::640-767           10      0.01%     99.99% # Bytes accessed per row activation
system.mem_ctrls.bytesPerActivate::768-895            4      0.00%     99.99% # Bytes accessed per row activation
system.mem_ctrls.bytesPerActivate::896-1023            2      0.00%     99.99% # Bytes accessed per row activation
system.mem_ctrls.bytesPerActivate::1024-1151            6      0.01%    100.00% # Bytes accessed per row activation
system.mem_ctrls.bytesPerActivate::total        98070                       # Bytes accessed per row activation
system.mem_ctrls.rdPerTurnAround::samples           18                       # Reads before turning the bus around for writes
system.mem_ctrls.rdPerTurnAround::mean   10525.888889                       # Reads before turning the bus around for writes
system.mem_ctrls.rdPerTurnAround::gmean  10297.098000                       # Reads before turning the bus around for writes
system.mem_ctrls.rdPerTurnAround::stdev   2297.315438                       # Reads before turning the bus around for writes
system.mem_ctrls.rdPerTurnAround::7168-7679            2     11.11%     11.11% # Reads before turning the bus around for writes
system.mem_ctrls.rdPerTurnAround::8192-8703            2     11.11%     22.22% # Reads before turning the bus around for writes
system.mem_ctrls.rdPerTurnAround::8704-9215            3     16.67%     38.89% # Reads before turning the bus around for writes
system.mem_ctrls.rdPerTurnAround::9216-9727            1      5.56%     44.44% # Reads before turning the bus around for writes
system.mem_ctrls.rdPerTurnAround::9728-10239            1      5.56%     50.00% # Reads before turning the bus around for writes
system.mem_ctrls.rdPerTurnAround::10240-10751            1      5.56%     55.56% # Reads before turning the bus around for writes
system.mem_ctrls.rdPerTurnAround::10752-11263            1      5.56%     61.11% # Reads before turning the bus around for writes
system.mem_ctrls.rdPerTurnAround::11264-11775            1      5.56%     66.67% # Reads before turning the bus around for writes
system.mem_ctrls.rdPerTurnAround::11776-12287            2     11.11%     77.78% # Reads before turning the bus around for writes
system.mem_ctrls.rdPerTurnAround::12288-12799            1      5.56%     83.33% # Reads before turning the bus around for writes
system.mem_ctrls.rdPerTurnAround::13312-13823            1      5.56%     88.89% # Reads before turning the bus around for writes
system.mem_ctrls.rdPerTurnAround::13824-14335            1      5.56%     94.44% # Reads before turning the bus around for writes
system.mem_ctrls.rdPerTurnAround::14848-15359            1      5.56%    100.00% # Reads before turning the bus around for writes
system.mem_ctrls.rdPerTurnAround::total            18                       # Reads before turning the bus around for writes
system.mem_ctrls.wrPerTurnAround::samples           18                       # Writes before turning the bus around for reads
system.mem_ctrls.wrPerTurnAround::mean             16                       # Writes before turning the bus around for reads
system.mem_ctrls.wrPerTurnAround::gmean     16.000000                       # Writes before turning the bus around for reads
system.mem_ctrls.wrPerTurnAround::16               18    100.00%    100.00% # Writes before turning the bus around for reads
system.mem_ctrls.wrPerTurnAround::total            18                       # Writes before turning the bus around for reads
system.mem_ctrls.totQLat                   4701878000                       # Total ticks spent queuing
system.mem_ctrls.totMemAccLat              8306246750                       # Total ticks spent from burst creation until serviced by the DRAM
system.mem_ctrls.totBusLat                  961165000                       # Total ticks spent in databus transfers
system.mem_ctrls.avgQLat                     24459.27                       # Average queueing delay per DRAM burst
system.mem_ctrls.avgBusLat                    5000.00                       # Average bus latency per DRAM burst
system.mem_ctrls.avgMemAccLat                43209.27                       # Average memory access latency per DRAM burst
system.mem_ctrls.avgRdBW                       805.83                       # Average DRAM read bandwidth in MiByte/s
system.mem_ctrls.avgWrBW                         1.21                       # Average achieved write bandwidth in MiByte/s
system.mem_ctrls.avgRdBWSys                    806.02                       # Average system read bandwidth in MiByte/s
system.mem_ctrls.avgWrBWSys                      1.24                       # Average system write bandwidth in MiByte/s
system.mem_ctrls.peakBW                      12800.00                       # Theoretical peak bandwidth in MiByte/s
system.mem_ctrls.busUtil                         6.30                       # Data bus utilization in percentage
system.mem_ctrls.busUtilRead                     6.30                       # Data bus utilization in percentage for reads
system.mem_ctrls.busUtilWrite                    0.01                       # Data bus utilization in percentage for writes
system.mem_ctrls.avgRdQLen                       1.31                       # Average read queue length when enqueuing
system.mem_ctrls.avgWrQLen                      25.29                       # Average write queue length when enqueuing
system.mem_ctrls.readRowHits                    94201                       # Number of row buffer hits during reads
system.mem_ctrls.writeRowHits                     252                       # Number of row buffer hits during writes
system.mem_ctrls.readRowHitRate                 49.00                       # Row buffer hit rate for reads
system.mem_ctrls.writeRowHitRate                85.42                       # Row buffer hit rate for writes
system.mem_ctrls.avgGap                      79281.27                       # Average gap between requests
system.mem_ctrls.pageHitRate                    49.06                       # Row buffer hit rate, read and write combined
system.mem_ctrls_0.actEnergy                348667620                       # Energy for activate commands per rank (pJ)
system.mem_ctrls_0.preEnergy                185336415                       # Energy for precharge commands per rank (pJ)
system.mem_ctrls_0.readEnergy               681862860                       # Energy for read commands per rank (pJ)
system.mem_ctrls_0.writeEnergy                 140940                       # Energy for write commands per rank (pJ)
system.mem_ctrls_0.refreshEnergy         1205309040.000000                       # Energy for refresh commands per rank (pJ)
system.mem_ctrls_0.actBackEnergy           1612820130                       # Energy for active background per rank (pJ)
system.mem_ctrls_0.preBackEnergy             24784320                       # Energy for precharge background per rank (pJ)
system.mem_ctrls_0.actPowerDownEnergy      5192589990                       # Energy for active power-down per rank (pJ)
system.mem_ctrls_0.prePowerDownEnergy       101316480                       # Energy for precharge power-down per rank (pJ)
system.mem_ctrls_0.selfRefreshEnergy          4659180                       # Energy for self refresh per rank (pJ)
system.mem_ctrls_0.totalEnergy             9357486975                       # Total energy per rank (pJ)
system.mem_ctrls_0.averagePower            612.908630                       # Core power per rank (mW)
system.mem_ctrls_0.totalIdleTime          11666473375                       # Total Idle time Per DRAM Rank
system.mem_ctrls_0.memoryStateTime::IDLE     10290000                       # Time in different power states
system.mem_ctrls_0.memoryStateTime::REF     509872000                       # Time in different power states
system.mem_ctrls_0.memoryStateTime::SREF     14811750                       # Time in different power states
system.mem_ctrls_0.memoryStateTime::PRE_PDN    263672000                       # Time in different power states
system.mem_ctrls_0.memoryStateTime::ACT    3080654500                       # Time in different power states
system.mem_ctrls_0.memoryStateTime::ACT_PDN  11388043875                       # Time in different power states
system.mem_ctrls_1.actEnergy                351537900                       # Energy for activate commands per rank (pJ)
system.mem_ctrls_1.preEnergy                186839235                       # Energy for precharge commands per rank (pJ)
system.mem_ctrls_1.readEnergy               690680760                       # Energy for read commands per rank (pJ)
system.mem_ctrls_1.writeEnergy                1362420                       # Energy for write commands per rank (pJ)
system.mem_ctrls_1.refreshEnergy         1205309040.000000                       # Energy for refresh commands per rank (pJ)
system.mem_ctrls_1.actBackEnergy           1629946350                       # Energy for active background per rank (pJ)
system.mem_ctrls_1.preBackEnergy             24245760                       # Energy for precharge background per rank (pJ)
system.mem_ctrls_1.actPowerDownEnergy      5148466860                       # Energy for active power-down per rank (pJ)
system.mem_ctrls_1.prePowerDownEnergy       128635680                       # Energy for precharge power-down per rank (pJ)
system.mem_ctrls_1.selfRefreshEnergy          1577940                       # Energy for self refresh per rank (pJ)
system.mem_ctrls_1.totalEnergy             9368601945                       # Total energy per rank (pJ)
system.mem_ctrls_1.averagePower            613.636653                       # Core power per rank (mW)
system.mem_ctrls_1.totalIdleTime          11628395875                       # Total Idle time Per DRAM Rank
system.mem_ctrls_1.memoryStateTime::IDLE      9720500                       # Time in different power states
system.mem_ctrls_1.memoryStateTime::REF     509866000                       # Time in different power states
system.mem_ctrls_1.memoryStateTime::SREF      4274500                       # Time in different power states
system.mem_ctrls_1.memoryStateTime::PRE_PDN    335280500                       # Time in different power states
system.mem_ctrls_1.memoryStateTime::ACT    3118320250                       # Time in different power states
system.mem_ctrls_1.memoryStateTime::ACT_PDN  11289882375                       # Time in different power states
system.pwrStateResidencyTicks::UNDEFINED  15267344125                       # Cumulative time (in ticks) in various power states
system.cpu0.branchPred.lookups                1560195                       # Number of BP lookups
system.cpu0.branchPred.condPredicted          1560195                       # Number of conditional branches predicted
system.cpu0.branchPred.condIncorrect            63501                       # Number of conditional branches incorrect
system.cpu0.branchPred.BTBLookups             1235877                       # Number of BTB lookups
system.cpu0.branchPred.BTBHits                      0                       # Number of BTB hits
system.cpu0.branchPred.BTBCorrect                   0                       # Number of correct BTB predictions (this stat may not work properly.
system.cpu0.branchPred.BTBHitPct             0.000000                       # BTB Hit Percentage
system.cpu0.branchPred.usedRAS                  41650                       # Number of times the RAS was used to get a target.
system.cpu0.branchPred.RASInCorrect              6330                       # Number of incorrect RAS predictions.
system.cpu0.branchPred.indirectLookups        1235877                       # Number of indirect predictor lookups.
system.cpu0.branchPred.indirectHits            663374                       # Number of indirect target hits.
system.cpu0.branchPred.indirectMisses          572503                       # Number of indirect misses.
system.cpu0.branchPredindirectMispredicted        19411                       # Number of mispredicted indirect branches.
system.cpu_voltage_domain.voltage                   1                       # Voltage in Volts
system.cpu_clk_domain.clock                       500                       # Clock period in ticks
system.cpu0.dtb.walker.pwrStateResidencyTicks::UNDEFINED  15267344125                       # Cumulative time (in ticks) in various power states
system.cpu0.dtb.rdAccesses                     731344                       # TLB accesses on read requests
system.cpu0.dtb.wrAccesses                      41071                       # TLB accesses on write requests
system.cpu0.dtb.rdMisses                       152637                       # TLB misses on read requests
system.cpu0.dtb.wrMisses                          783                       # TLB misses on write requests
system.cpu0.apic_clk_domain.clock                8000                       # Clock period in ticks
system.cpu0.interrupts.pwrStateResidencyTicks::UNDEFINED  15267344125                       # Cumulative time (in ticks) in various power states
system.cpu0.itb.walker.pwrStateResidencyTicks::UNDEFINED  15267344125                       # Cumulative time (in ticks) in various power states
system.cpu0.itb.rdAccesses                          0                       # TLB accesses on read requests
system.cpu0.itb.wrAccesses                    1296514                       # TLB accesses on write requests
system.cpu0.itb.rdMisses                            0                       # TLB misses on read requests
system.cpu0.itb.wrMisses                         4735                       # TLB misses on write requests
system.cpu0.workload.numSyscalls                    0                       # Number of system calls
system.cpu0.pwrStateResidencyTicks::ON    15267344125                       # Cumulative time (in ticks) in various power states
system.cpu0.numCycles                        30534688                       # number of cpu cycles simulated
system.cpu0.numWorkItemsStarted                     0                       # number of work items this cpu started
system.cpu0.numWorkItemsCompleted                   0                       # number of work items this cpu completed
system.cpu0.fetch.icacheStallCycles           1324741                       # Number of cycles fetch is stalled on an Icache miss
system.cpu0.fetch.Insts                       4510663                       # Number of instructions fetch has processed
system.cpu0.fetch.Branches                    1560195                       # Number of branches that fetch encountered
system.cpu0.fetch.predictedBranches            705024                       # Number of branches that fetch has predicted taken
system.cpu0.fetch.Cycles                     29055404                       # Number of cycles fetch has run and was not squashing or blocked
system.cpu0.fetch.SquashCycles                 130290                       # Number of cycles fetch has spent squashing
system.cpu0.fetch.TlbCycles                       885                       # Number of cycles fetch has spent waiting for tlb
system.cpu0.fetch.MiscStallCycles                1115                       # Number of cycles fetch has spent waiting on interrupts, or bad addresses, or out of MSHRs
system.cpu0.fetch.PendingTrapStallCycles        40504                       # Number of stall cycles due to pending traps
system.cpu0.fetch.CacheLines                  1291779                       # Number of cache lines fetched
system.cpu0.fetch.IcacheSquashes                 6674                       # Number of outstanding Icache misses that were squashed
system.cpu0.fetch.ItlbSquashes                      5                       # Number of outstanding ITLB misses that were squashed
system.cpu0.fetch.rateDist::samples          30487794                       # Number of instructions fetched each cycle (Total)
system.cpu0.fetch.rateDist::mean             0.297604                       # Number of instructions fetched each cycle (Total)
system.cpu0.fetch.rateDist::stdev            1.373144                       # Number of instructions fetched each cycle (Total)
system.cpu0.fetch.rateDist::underflows              0      0.00%      0.00% # Number of instructions fetched each cycle (Total)
system.cpu0.fetch.rateDist::0                28724799     94.22%     94.22% # Number of instructions fetched each cycle (Total)
system.cpu0.fetch.rateDist::1                   17768      0.06%     94.28% # Number of instructions fetched each cycle (Total)
system.cpu0.fetch.rateDist::2                  651985      2.14%     96.41% # Number of instructions fetched each cycle (Total)
system.cpu0.fetch.rateDist::3                   22531      0.07%     96.49% # Number of instructions fetched each cycle (Total)
system.cpu0.fetch.rateDist::4                  126298      0.41%     96.90% # Number of instructions fetched each cycle (Total)
system.cpu0.fetch.rateDist::5                   62298      0.20%     97.11% # Number of instructions fetched each cycle (Total)
system.cpu0.fetch.rateDist::6                   84096      0.28%     97.38% # Number of instructions fetched each cycle (Total)
system.cpu0.fetch.rateDist::7                   21442      0.07%     97.45% # Number of instructions fetched each cycle (Total)
system.cpu0.fetch.rateDist::8                  776577      2.55%    100.00% # Number of instructions fetched each cycle (Total)
system.cpu0.fetch.rateDist::overflows               0      0.00%    100.00% # Number of instructions fetched each cycle (Total)
system.cpu0.fetch.rateDist::min_value               0                       # Number of instructions fetched each cycle (Total)
system.cpu0.fetch.rateDist::max_value               8                       # Number of instructions fetched each cycle (Total)
system.cpu0.fetch.rateDist::total            30487794                       # Number of instructions fetched each cycle (Total)
system.cpu0.fetch.branchRate                 0.051096                       # Number of branch fetches per cycle
system.cpu0.fetch.rate                       0.147723                       # Number of inst fetches per cycle
system.cpu0.decode.IdleCycles                  645940                       # Number of cycles decode is idle
system.cpu0.decode.BlockedCycles             28639775                       # Number of cycles decode is blocked
system.cpu0.decode.RunCycles                   824964                       # Number of cycles decode is running
system.cpu0.decode.UnblockCycles               311970                       # Number of cycles decode is unblocking
system.cpu0.decode.SquashCycles                 65145                       # Number of cycles decode is squashing
system.cpu0.decode.DecodedInsts               7393819                       # Number of instructions handled by decode
system.cpu0.rename.SquashCycles                 65145                       # Number of cycles rename is squashing
system.cpu0.rename.IdleCycles                  738956                       # Number of cycles rename is idle
system.cpu0.rename.BlockCycles               27339246                       # Number of cycles rename is blocking
system.cpu0.rename.serializeStallCycles         15835                       # count of cycles rename stalled for serializing inst
system.cpu0.rename.RunCycles                   966913                       # Number of cycles rename is running
system.cpu0.rename.UnblockCycles              1361699                       # Number of cycles rename is unblocking
system.cpu0.rename.RenamedInsts               7094924                       # Number of instructions processed by rename
system.cpu0.rename.ROBFullEvents                77626                       # Number of times rename has blocked due to ROB full
system.cpu0.rename.IQFullEvents               1057186                       # Number of times rename has blocked due to IQ full
system.cpu0.rename.LQFullEvents                260111                       # Number of times rename has blocked due to LQ full
system.cpu0.rename.SQFullEvents                    44                       # Number of times rename has blocked due to SQ full
system.cpu0.rename.RenamedOperands            8467203                       # Number of destination operands rename has renamed
system.cpu0.rename.RenameLookups             19803012                       # Number of register rename lookups that rename has made
system.cpu0.rename.int_rename_lookups         9258388                       # Number of integer rename lookups
system.cpu0.rename.fp_rename_lookups            29535                       # Number of floating rename lookups
system.cpu0.rename.CommittedMaps              2959343                       # Number of HB maps that are committed
system.cpu0.rename.UndoneMaps                 5507958                       # Number of HB maps that are undone due to squashing
system.cpu0.rename.serializingInsts               277                       # count of serializing insts renamed
system.cpu0.rename.tempSerializingInsts           314                       # count of temporary serializing insts renamed
system.cpu0.rename.skidInsts                  2012750                       # count of insts added to the skid buffer
system.cpu0.memDep0.insertedLoads             1301664                       # Number of loads inserted to the mem dependence unit.
system.cpu0.memDep0.insertedStores              60976                       # Number of stores inserted to the mem dependence unit.
system.cpu0.memDep0.conflictingLoads             3541                       # Number of conflicting loads.
system.cpu0.memDep0.conflictingStores            3609                       # Number of conflicting stores.
system.cpu0.iq.iqInstsAdded                   6754364                       # Number of instructions added to the IQ (excludes non-spec)
system.cpu0.iq.iqNonSpecInstsAdded               3349                       # Number of non-speculative instructions added to the IQ
system.cpu0.iq.iqInstsIssued                  4806006                       # Number of instructions issued
system.cpu0.iq.iqSquashedInstsIssued             5096                       # Number of squashed instructions issued
system.cpu0.iq.iqSquashedInstsExamined        4289888                       # Number of squashed instructions iterated over during squash; mainly for profiling
system.cpu0.iq.iqSquashedOperandsExamined      9002230                       # Number of squashed operands that are examined and possibly removed from graph
system.cpu0.iq.iqSquashedNonSpecRemoved          3349                       # Number of squashed non-spec instructions that were removed
system.cpu0.iq.issued_per_cycle::samples     30487794                       # Number of insts issued each cycle
system.cpu0.iq.issued_per_cycle::mean        0.157637                       # Number of insts issued each cycle
system.cpu0.iq.issued_per_cycle::stdev       0.716227                       # Number of insts issued each cycle
system.cpu0.iq.issued_per_cycle::underflows            0      0.00%      0.00% # Number of insts issued each cycle
system.cpu0.iq.issued_per_cycle::0           28472355     93.39%     93.39% # Number of insts issued each cycle
system.cpu0.iq.issued_per_cycle::1             817945      2.68%     96.07% # Number of insts issued each cycle
system.cpu0.iq.issued_per_cycle::2             432811      1.42%     97.49% # Number of insts issued each cycle
system.cpu0.iq.issued_per_cycle::3             285568      0.94%     98.43% # Number of insts issued each cycle
system.cpu0.iq.issued_per_cycle::4             292075      0.96%     99.39% # Number of insts issued each cycle
system.cpu0.iq.issued_per_cycle::5              80272      0.26%     99.65% # Number of insts issued each cycle
system.cpu0.iq.issued_per_cycle::6              67916      0.22%     99.87% # Number of insts issued each cycle
system.cpu0.iq.issued_per_cycle::7              22237      0.07%     99.95% # Number of insts issued each cycle
system.cpu0.iq.issued_per_cycle::8              16615      0.05%    100.00% # Number of insts issued each cycle
system.cpu0.iq.issued_per_cycle::overflows            0      0.00%    100.00% # Number of insts issued each cycle
system.cpu0.iq.issued_per_cycle::min_value            0                       # Number of insts issued each cycle
system.cpu0.iq.issued_per_cycle::max_value            8                       # Number of insts issued each cycle
system.cpu0.iq.issued_per_cycle::total       30487794                       # Number of insts issued each cycle
system.cpu0.iq.fu_full::No_OpClass                  0      0.00%      0.00% # attempts to use FU when none available
system.cpu0.iq.fu_full::IntAlu                   8523     64.26%     64.26% # attempts to use FU when none available
system.cpu0.iq.fu_full::IntMult                     0      0.00%     64.26% # attempts to use FU when none available
system.cpu0.iq.fu_full::IntDiv                      0      0.00%     64.26% # attempts to use FU when none available
system.cpu0.iq.fu_full::FloatAdd                  837      6.31%     70.57% # attempts to use FU when none available
system.cpu0.iq.fu_full::FloatCmp                    0      0.00%     70.57% # attempts to use FU when none available
system.cpu0.iq.fu_full::FloatCvt                    0      0.00%     70.57% # attempts to use FU when none available
system.cpu0.iq.fu_full::FloatMult                   0      0.00%     70.57% # attempts to use FU when none available
system.cpu0.iq.fu_full::FloatMultAcc                0      0.00%     70.57% # attempts to use FU when none available
system.cpu0.iq.fu_full::FloatDiv                    0      0.00%     70.57% # attempts to use FU when none available
system.cpu0.iq.fu_full::FloatMisc                   0      0.00%     70.57% # attempts to use FU when none available
system.cpu0.iq.fu_full::FloatSqrt                   0      0.00%     70.57% # attempts to use FU when none available
system.cpu0.iq.fu_full::SimdAdd                     0      0.00%     70.57% # attempts to use FU when none available
system.cpu0.iq.fu_full::SimdAddAcc                  0      0.00%     70.57% # attempts to use FU when none available
system.cpu0.iq.fu_full::SimdAlu                     0      0.00%     70.57% # attempts to use FU when none available
system.cpu0.iq.fu_full::SimdCmp                     0      0.00%     70.57% # attempts to use FU when none available
system.cpu0.iq.fu_full::SimdCvt                     0      0.00%     70.57% # attempts to use FU when none available
system.cpu0.iq.fu_full::SimdMisc                    0      0.00%     70.57% # attempts to use FU when none available
system.cpu0.iq.fu_full::SimdMult                    0      0.00%     70.57% # attempts to use FU when none available
system.cpu0.iq.fu_full::SimdMultAcc                 0      0.00%     70.57% # attempts to use FU when none available
system.cpu0.iq.fu_full::SimdShift                   0      0.00%     70.57% # attempts to use FU when none available
system.cpu0.iq.fu_full::SimdShiftAcc                0      0.00%     70.57% # attempts to use FU when none available
system.cpu0.iq.fu_full::SimdSqrt                    0      0.00%     70.57% # attempts to use FU when none available
system.cpu0.iq.fu_full::SimdFloatAdd                0      0.00%     70.57% # attempts to use FU when none available
system.cpu0.iq.fu_full::SimdFloatAlu                0      0.00%     70.57% # attempts to use FU when none available
system.cpu0.iq.fu_full::SimdFloatCmp                0      0.00%     70.57% # attempts to use FU when none available
system.cpu0.iq.fu_full::SimdFloatCvt                0      0.00%     70.57% # attempts to use FU when none available
system.cpu0.iq.fu_full::SimdFloatDiv                0      0.00%     70.57% # attempts to use FU when none available
system.cpu0.iq.fu_full::SimdFloatMisc               0      0.00%     70.57% # attempts to use FU when none available
system.cpu0.iq.fu_full::SimdFloatMult               0      0.00%     70.57% # attempts to use FU when none available
system.cpu0.iq.fu_full::SimdFloatMultAcc            0      0.00%     70.57% # attempts to use FU when none available
system.cpu0.iq.fu_full::SimdFloatSqrt               0      0.00%     70.57% # attempts to use FU when none available
system.cpu0.iq.fu_full::MemRead                  3522     26.55%     97.12% # attempts to use FU when none available
system.cpu0.iq.fu_full::MemWrite                  250      1.88%     99.00% # attempts to use FU when none available
system.cpu0.iq.fu_full::FloatMemRead              113      0.85%     99.86% # attempts to use FU when none available
system.cpu0.iq.fu_full::FloatMemWrite              19      0.14%    100.00% # attempts to use FU when none available
system.cpu0.iq.fu_full::IprAccess                   0      0.00%    100.00% # attempts to use FU when none available
system.cpu0.iq.fu_full::InstPrefetch                0      0.00%    100.00% # attempts to use FU when none available
system.cpu0.iq.FU_type_0::No_OpClass            15208      0.32%      0.32% # Type of FU issued
system.cpu0.iq.FU_type_0::IntAlu              3963258     82.46%     82.78% # Type of FU issued
system.cpu0.iq.FU_type_0::IntMult                 872      0.02%     82.80% # Type of FU issued
system.cpu0.iq.FU_type_0::IntDiv                 7116      0.15%     82.95% # Type of FU issued
system.cpu0.iq.FU_type_0::FloatAdd              10630      0.22%     83.17% # Type of FU issued
system.cpu0.iq.FU_type_0::FloatCmp                  0      0.00%     83.17% # Type of FU issued
system.cpu0.iq.FU_type_0::FloatCvt                  0      0.00%     83.17% # Type of FU issued
system.cpu0.iq.FU_type_0::FloatMult                 0      0.00%     83.17% # Type of FU issued
system.cpu0.iq.FU_type_0::FloatMultAcc              0      0.00%     83.17% # Type of FU issued
system.cpu0.iq.FU_type_0::FloatDiv                  0      0.00%     83.17% # Type of FU issued
system.cpu0.iq.FU_type_0::FloatMisc                 0      0.00%     83.17% # Type of FU issued
system.cpu0.iq.FU_type_0::FloatSqrt                 0      0.00%     83.17% # Type of FU issued
system.cpu0.iq.FU_type_0::SimdAdd                   0      0.00%     83.17% # Type of FU issued
system.cpu0.iq.FU_type_0::SimdAddAcc                0      0.00%     83.17% # Type of FU issued
system.cpu0.iq.FU_type_0::SimdAlu                   0      0.00%     83.17% # Type of FU issued
system.cpu0.iq.FU_type_0::SimdCmp                   0      0.00%     83.17% # Type of FU issued
system.cpu0.iq.FU_type_0::SimdCvt                   0      0.00%     83.17% # Type of FU issued
system.cpu0.iq.FU_type_0::SimdMisc                  0      0.00%     83.17% # Type of FU issued
system.cpu0.iq.FU_type_0::SimdMult                  0      0.00%     83.17% # Type of FU issued
system.cpu0.iq.FU_type_0::SimdMultAcc               0      0.00%     83.17% # Type of FU issued
system.cpu0.iq.FU_type_0::SimdShift                 0      0.00%     83.17% # Type of FU issued
system.cpu0.iq.FU_type_0::SimdShiftAcc              0      0.00%     83.17% # Type of FU issued
system.cpu0.iq.FU_type_0::SimdSqrt                  0      0.00%     83.17% # Type of FU issued
system.cpu0.iq.FU_type_0::SimdFloatAdd              0      0.00%     83.17% # Type of FU issued
system.cpu0.iq.FU_type_0::SimdFloatAlu              0      0.00%     83.17% # Type of FU issued
system.cpu0.iq.FU_type_0::SimdFloatCmp              0      0.00%     83.17% # Type of FU issued
system.cpu0.iq.FU_type_0::SimdFloatCvt              0      0.00%     83.17% # Type of FU issued
system.cpu0.iq.FU_type_0::SimdFloatDiv              0      0.00%     83.17% # Type of FU issued
system.cpu0.iq.FU_type_0::SimdFloatMisc             0      0.00%     83.17% # Type of FU issued
system.cpu0.iq.FU_type_0::SimdFloatMult             0      0.00%     83.17% # Type of FU issued
system.cpu0.iq.FU_type_0::SimdFloatMultAcc            0      0.00%     83.17% # Type of FU issued
system.cpu0.iq.FU_type_0::SimdFloatSqrt             0      0.00%     83.17% # Type of FU issued
system.cpu0.iq.FU_type_0::MemRead              762391     15.86%     99.03% # Type of FU issued
system.cpu0.iq.FU_type_0::MemWrite              44341      0.92%     99.95% # Type of FU issued
system.cpu0.iq.FU_type_0::FloatMemRead           2111      0.04%    100.00% # Type of FU issued
system.cpu0.iq.FU_type_0::FloatMemWrite            79      0.00%    100.00% # Type of FU issued
system.cpu0.iq.FU_type_0::IprAccess                 0      0.00%    100.00% # Type of FU issued
system.cpu0.iq.FU_type_0::InstPrefetch              0      0.00%    100.00% # Type of FU issued
system.cpu0.iq.FU_type_0::total               4806006                       # Type of FU issued
system.cpu0.iq.rate                          0.157395                       # Inst issue rate
system.cpu0.iq.fu_busy_cnt                      13264                       # FU busy when requested
system.cpu0.iq.fu_busy_rate                  0.002760                       # FU busy rate (busy events/executed inst)
system.cpu0.iq.int_inst_queue_reads          40091347                       # Number of integer instruction queue reads
system.cpu0.iq.int_inst_queue_writes         11022143                       # Number of integer instruction queue writes
system.cpu0.iq.int_inst_queue_wakeup_accesses      4616244                       # Number of integer instruction queue wakeup accesses
system.cpu0.iq.fp_inst_queue_reads              26819                       # Number of floating instruction queue reads
system.cpu0.iq.fp_inst_queue_writes             25460                       # Number of floating instruction queue writes
system.cpu0.iq.fp_inst_queue_wakeup_accesses        11489                       # Number of floating instruction queue wakeup accesses
system.cpu0.iq.vec_inst_queue_reads                 0                       # Number of vector instruction queue reads
system.cpu0.iq.vec_inst_queue_writes                0                       # Number of vector instruction queue writes
system.cpu0.iq.vec_inst_queue_wakeup_accesses            0                       # Number of vector instruction queue wakeup accesses
system.cpu0.iq.int_alu_accesses               4790265                       # Number of integer alu accesses
system.cpu0.iq.fp_alu_accesses                  13797                       # Number of floating point alu accesses
system.cpu0.iq.vec_alu_accesses                     0                       # Number of vector alu accesses
system.cpu0.iew.lsq.thread0.forwLoads            3452                       # Number of loads that had data forwarded from stores
system.cpu0.iew.lsq.thread0.invAddrLoads            0                       # Number of loads ignored due to an invalid address
system.cpu0.iew.lsq.thread0.squashedLoads       827264                       # Number of loads squashed
system.cpu0.iew.lsq.thread0.ignoredResponses          106                       # Number of memory responses ignored because the instruction is squashed
system.cpu0.iew.lsq.thread0.memOrderViolation            3                       # Number of memory ordering violations
system.cpu0.iew.lsq.thread0.squashedStores        40439                       # Number of stores squashed
system.cpu0.iew.lsq.thread0.invAddrSwpfs            0                       # Number of software prefetches ignored due to an invalid address
system.cpu0.iew.lsq.thread0.blockedLoads            0                       # Number of blocked loads due to partial load-store forwarding
system.cpu0.iew.lsq.thread0.rescheduledLoads           24                       # Number of loads that were rescheduled
system.cpu0.iew.lsq.thread0.cacheBlocked         1342                       # Number of times an access to memory failed due to the cache being blocked
system.cpu0.iew.iewIdleCycles                       0                       # Number of cycles IEW is idle
system.cpu0.iew.iewSquashCycles                 65145                       # Number of cycles IEW is squashing
system.cpu0.iew.iewBlockCycles               25405757                       # Number of cycles IEW is blocking
system.cpu0.iew.iewUnblockCycles               290988                       # Number of cycles IEW is unblocking
system.cpu0.iew.iewDispatchedInsts            6757713                       # Number of instructions dispatched to IQ
system.cpu0.iew.iewDispSquashedInsts             4602                       # Number of squashed instructions skipped by dispatch
system.cpu0.iew.iewDispLoadInsts              1301664                       # Number of dispatched load instructions
system.cpu0.iew.iewDispStoreInsts               60976                       # Number of dispatched store instructions
system.cpu0.iew.iewDispNonSpecInsts              1269                       # Number of dispatched non-speculative instructions
system.cpu0.iew.iewIQFullEvents                 18472                       # Number of times the IQ has become full, causing a stall
system.cpu0.iew.iewLSQFullEvents                81073                       # Number of times the LSQ has become full, causing a stall
system.cpu0.iew.memOrderViolationEvents             3                       # Number of memory order violations
system.cpu0.iew.predictedTakenIncorrect         34573                       # Number of branches that were predicted taken incorrectly
system.cpu0.iew.predictedNotTakenIncorrect        36673                       # Number of branches that were predicted not taken incorrectly
system.cpu0.iew.branchMispredicts               71246                       # Number of branch mispredicts detected at execute
system.cpu0.iew.iewExecutedInsts              4724876                       # Number of executed instructions
system.cpu0.iew.iewExecLoadInsts               731090                       # Number of load instructions executed
system.cpu0.iew.iewExecSquashedInsts            81130                       # Number of squashed instructions skipped in execute
system.cpu0.iew.exec_swp                            0                       # number of swp insts executed
system.cpu0.iew.exec_nop                            0                       # number of nop insts executed
system.cpu0.iew.exec_refs                      772143                       # number of memory reference insts executed
system.cpu0.iew.exec_branches                  568299                       # Number of branches executed
system.cpu0.iew.exec_stores                     41053                       # Number of stores executed
system.cpu0.iew.exec_rate                    0.154738                       # Inst execution rate
system.cpu0.iew.wb_sent                       4642451                       # cumulative count of insts sent to commit
system.cpu0.iew.wb_count                      4627733                       # cumulative count of insts written-back
system.cpu0.iew.wb_producers                  3406153                       # num instructions producing a value
system.cpu0.iew.wb_consumers                  5369838                       # num instructions consuming a value
system.cpu0.iew.wb_rate                      0.151557                       # insts written-back per cycle
system.cpu0.iew.wb_fanout                    0.634312                       # average fanout of values written-back
system.cpu0.commit.commitSquashedInsts        4290717                       # The number of squashed insts skipped by commit
system.cpu0.commit.branchMispredicts            65143                       # The number of times a branch was mispredicted
system.cpu0.commit.committed_per_cycle::samples     29882270                       # Number of insts commited each cycle
system.cpu0.commit.committed_per_cycle::mean     0.082588                       # Number of insts commited each cycle
system.cpu0.commit.committed_per_cycle::stdev     0.518344                       # Number of insts commited each cycle
system.cpu0.commit.committed_per_cycle::underflows            0      0.00%      0.00% # Number of insts commited each cycle
system.cpu0.commit.committed_per_cycle::0     28782035     96.32%     96.32% # Number of insts commited each cycle
system.cpu0.commit.committed_per_cycle::1       515972      1.73%     98.04% # Number of insts commited each cycle
system.cpu0.commit.committed_per_cycle::2       120217      0.40%     98.45% # Number of insts commited each cycle
system.cpu0.commit.committed_per_cycle::3       333152      1.11%     99.56% # Number of insts commited each cycle
system.cpu0.commit.committed_per_cycle::4        57948      0.19%     99.76% # Number of insts commited each cycle
system.cpu0.commit.committed_per_cycle::5        30414      0.10%     99.86% # Number of insts commited each cycle
system.cpu0.commit.committed_per_cycle::6         4367      0.01%     99.87% # Number of insts commited each cycle
system.cpu0.commit.committed_per_cycle::7         3326      0.01%     99.88% # Number of insts commited each cycle
system.cpu0.commit.committed_per_cycle::8        34839      0.12%    100.00% # Number of insts commited each cycle
system.cpu0.commit.committed_per_cycle::overflows            0      0.00%    100.00% # Number of insts commited each cycle
system.cpu0.commit.committed_per_cycle::min_value            0                       # Number of insts commited each cycle
system.cpu0.commit.committed_per_cycle::max_value            8                       # Number of insts commited each cycle
system.cpu0.commit.committed_per_cycle::total     29882270                       # Number of insts commited each cycle
system.cpu0.commit.committedInsts             1235578                       # Number of instructions committed
system.cpu0.commit.committedOps               2467920                       # Number of ops (including micro ops) committed
system.cpu0.commit.swp_count                        0                       # Number of s/w prefetches committed
system.cpu0.commit.refs                        494956                       # Number of memory references committed
system.cpu0.commit.loads                       474419                       # Number of loads committed
system.cpu0.commit.membars                          0                       # Number of memory barriers committed
system.cpu0.commit.branches                    451337                       # Number of branches committed
system.cpu0.commit.vec_insts                        0                       # Number of committed Vector instructions.
system.cpu0.commit.fp_insts                      8228                       # Number of committed floating point instructions.
system.cpu0.commit.int_insts                  2459622                       # Number of committed integer instructions.
system.cpu0.commit.function_calls                3625                       # Number of function calls committed.
system.cpu0.commit.op_class_0::No_OpClass         2462      0.10%      0.10% # Class of committed instruction
system.cpu0.commit.op_class_0::IntAlu         1957392     79.31%     79.41% # Class of committed instruction
system.cpu0.commit.op_class_0::IntMult            145      0.01%     79.42% # Class of committed instruction
system.cpu0.commit.op_class_0::IntDiv            5933      0.24%     79.66% # Class of committed instruction
system.cpu0.commit.op_class_0::FloatAdd          7032      0.28%     79.94% # Class of committed instruction
system.cpu0.commit.op_class_0::FloatCmp             0      0.00%     79.94% # Class of committed instruction
system.cpu0.commit.op_class_0::FloatCvt             0      0.00%     79.94% # Class of committed instruction
system.cpu0.commit.op_class_0::FloatMult            0      0.00%     79.94% # Class of committed instruction
system.cpu0.commit.op_class_0::FloatMultAcc            0      0.00%     79.94% # Class of committed instruction
system.cpu0.commit.op_class_0::FloatDiv             0      0.00%     79.94% # Class of committed instruction
system.cpu0.commit.op_class_0::FloatMisc            0      0.00%     79.94% # Class of committed instruction
system.cpu0.commit.op_class_0::FloatSqrt            0      0.00%     79.94% # Class of committed instruction
system.cpu0.commit.op_class_0::SimdAdd              0      0.00%     79.94% # Class of committed instruction
system.cpu0.commit.op_class_0::SimdAddAcc            0      0.00%     79.94% # Class of committed instruction
system.cpu0.commit.op_class_0::SimdAlu              0      0.00%     79.94% # Class of committed instruction
system.cpu0.commit.op_class_0::SimdCmp              0      0.00%     79.94% # Class of committed instruction
system.cpu0.commit.op_class_0::SimdCvt              0      0.00%     79.94% # Class of committed instruction
system.cpu0.commit.op_class_0::SimdMisc             0      0.00%     79.94% # Class of committed instruction
system.cpu0.commit.op_class_0::SimdMult             0      0.00%     79.94% # Class of committed instruction
system.cpu0.commit.op_class_0::SimdMultAcc            0      0.00%     79.94% # Class of committed instruction
system.cpu0.commit.op_class_0::SimdShift            0      0.00%     79.94% # Class of committed instruction
system.cpu0.commit.op_class_0::SimdShiftAcc            0      0.00%     79.94% # Class of committed instruction
system.cpu0.commit.op_class_0::SimdSqrt             0      0.00%     79.94% # Class of committed instruction
system.cpu0.commit.op_class_0::SimdFloatAdd            0      0.00%     79.94% # Class of committed instruction
system.cpu0.commit.op_class_0::SimdFloatAlu            0      0.00%     79.94% # Class of committed instruction
system.cpu0.commit.op_class_0::SimdFloatCmp            0      0.00%     79.94% # Class of committed instruction
system.cpu0.commit.op_class_0::SimdFloatCvt            0      0.00%     79.94% # Class of committed instruction
system.cpu0.commit.op_class_0::SimdFloatDiv            0      0.00%     79.94% # Class of committed instruction
system.cpu0.commit.op_class_0::SimdFloatMisc            0      0.00%     79.94% # Class of committed instruction
system.cpu0.commit.op_class_0::SimdFloatMult            0      0.00%     79.94% # Class of committed instruction
system.cpu0.commit.op_class_0::SimdFloatMultAcc            0      0.00%     79.94% # Class of committed instruction
system.cpu0.commit.op_class_0::SimdFloatSqrt            0      0.00%     79.94% # Class of committed instruction
system.cpu0.commit.op_class_0::MemRead         473223     19.17%     99.12% # Class of committed instruction
system.cpu0.commit.op_class_0::MemWrite         20537      0.83%     99.95% # Class of committed instruction
system.cpu0.commit.op_class_0::FloatMemRead         1196      0.05%    100.00% # Class of committed instruction
system.cpu0.commit.op_class_0::FloatMemWrite            0      0.00%    100.00% # Class of committed instruction
system.cpu0.commit.op_class_0::IprAccess            0      0.00%    100.00% # Class of committed instruction
system.cpu0.commit.op_class_0::InstPrefetch            0      0.00%    100.00% # Class of committed instruction
system.cpu0.commit.op_class_0::total          2467920                       # Class of committed instruction
system.cpu0.commit.bw_lim_events                34839                       # number cycles where commit BW limit reached
system.cpu0.rob.rob_reads                    36606068                       # The number of ROB reads
system.cpu0.rob.rob_writes                   14124020                       # The number of ROB writes
system.cpu0.timesIdled                            340                       # Number of times that the entire CPU went into an idle state and unscheduled itself
system.cpu0.idleCycles                          46894                       # Total number of cycles that the CPU has spent unscheduled due to idling
system.cpu0.committedInsts                    1235578                       # Number of Instructions Simulated
system.cpu0.committedOps                      2467920                       # Number of Ops (including micro ops) Simulated
system.cpu0.cpi                             24.712878                       # CPI: Cycles Per Instruction
system.cpu0.cpi_total                       24.712878                       # CPI: Total CPI of All Threads
system.cpu0.ipc                              0.040465                       # IPC: Instructions Per Cycle
system.cpu0.ipc_total                        0.040465                       # IPC: Total IPC of All Threads
system.cpu0.int_regfile_reads                 4646615                       # number of integer regfile reads
system.cpu0.int_regfile_writes                4022603                       # number of integer regfile writes
system.cpu0.fp_regfile_reads                    20481                       # number of floating regfile reads
system.cpu0.fp_regfile_writes                   10204                       # number of floating regfile writes
system.cpu0.cc_regfile_reads                  2993194                       # number of cc regfile reads
system.cpu0.cc_regfile_writes                 1269338                       # number of cc regfile writes
system.cpu0.misc_regfile_reads                2512261                       # number of misc regfile reads
system.cpu0.dcache.tags.pwrStateResidencyTicks::UNDEFINED  15267344125                       # Cumulative time (in ticks) in various power states
system.cpu0.dcache.tags.replacements           253842                       # number of replacements
system.cpu0.dcache.tags.tagsinuse                1024                       # Cycle average of tags in use
system.cpu0.dcache.tags.total_refs             294355                       # Total number of references to valid blocks.
system.cpu0.dcache.tags.sampled_refs           253842                       # Sample count of references to valid blocks.
system.cpu0.dcache.tags.avg_refs             1.159599                       # Average number of references to valid blocks.
system.cpu0.dcache.tags.warmup_cycle                0                       # Cycle when the warmup percentage was hit.
system.cpu0.dcache.tags.occ_blocks::cpu0.data         1024                       # Average occupied blocks per requestor
system.cpu0.dcache.tags.occ_percent::cpu0.data            1                       # Average percentage of cache occupancy
system.cpu0.dcache.tags.occ_percent::total            1                       # Average percentage of cache occupancy
system.cpu0.dcache.tags.occ_task_id_blocks::1024         1024                       # Occupied blocks per task id
system.cpu0.dcache.tags.age_task_id_blocks_1024::0          167                       # Occupied blocks per task id
system.cpu0.dcache.tags.age_task_id_blocks_1024::1          781                       # Occupied blocks per task id
system.cpu0.dcache.tags.age_task_id_blocks_1024::2           76                       # Occupied blocks per task id
system.cpu0.dcache.tags.occ_task_id_percent::1024            1                       # Percentage of cache occupancy per task id
system.cpu0.dcache.tags.tag_accesses          3232114                       # Number of tag accesses
system.cpu0.dcache.tags.data_accesses         3232114                       # Number of data accesses
system.cpu0.dcache.pwrStateResidencyTicks::UNDEFINED  15267344125                       # Cumulative time (in ticks) in various power states
system.cpu0.dcache.ReadReq_hits::cpu0.data       274914                       # number of ReadReq hits
system.cpu0.dcache.ReadReq_hits::total         274914                       # number of ReadReq hits
system.cpu0.dcache.WriteReq_hits::cpu0.data        19689                       # number of WriteReq hits
system.cpu0.dcache.WriteReq_hits::total         19689                       # number of WriteReq hits
system.cpu0.dcache.demand_hits::cpu0.data       294603                       # number of demand (read+write) hits
system.cpu0.dcache.demand_hits::total          294603                       # number of demand (read+write) hits
system.cpu0.dcache.overall_hits::cpu0.data       294603                       # number of overall hits
system.cpu0.dcache.overall_hits::total         294603                       # number of overall hits
system.cpu0.dcache.ReadReq_misses::cpu0.data       449117                       # number of ReadReq misses
system.cpu0.dcache.ReadReq_misses::total       449117                       # number of ReadReq misses
system.cpu0.dcache.WriteReq_misses::cpu0.data          848                       # number of WriteReq misses
system.cpu0.dcache.WriteReq_misses::total          848                       # number of WriteReq misses
system.cpu0.dcache.demand_misses::cpu0.data       449965                       # number of demand (read+write) misses
system.cpu0.dcache.demand_misses::total        449965                       # number of demand (read+write) misses
system.cpu0.dcache.overall_misses::cpu0.data       449965                       # number of overall misses
system.cpu0.dcache.overall_misses::total       449965                       # number of overall misses
system.cpu0.dcache.ReadReq_miss_latency::cpu0.data  34696337500                       # number of ReadReq miss cycles
system.cpu0.dcache.ReadReq_miss_latency::total  34696337500                       # number of ReadReq miss cycles
system.cpu0.dcache.WriteReq_miss_latency::cpu0.data     29800500                       # number of WriteReq miss cycles
system.cpu0.dcache.WriteReq_miss_latency::total     29800500                       # number of WriteReq miss cycles
system.cpu0.dcache.demand_miss_latency::cpu0.data  34726138000                       # number of demand (read+write) miss cycles
system.cpu0.dcache.demand_miss_latency::total  34726138000                       # number of demand (read+write) miss cycles
system.cpu0.dcache.overall_miss_latency::cpu0.data  34726138000                       # number of overall miss cycles
system.cpu0.dcache.overall_miss_latency::total  34726138000                       # number of overall miss cycles
system.cpu0.dcache.ReadReq_accesses::cpu0.data       724031                       # number of ReadReq accesses(hits+misses)
system.cpu0.dcache.ReadReq_accesses::total       724031                       # number of ReadReq accesses(hits+misses)
system.cpu0.dcache.WriteReq_accesses::cpu0.data        20537                       # number of WriteReq accesses(hits+misses)
system.cpu0.dcache.WriteReq_accesses::total        20537                       # number of WriteReq accesses(hits+misses)
system.cpu0.dcache.demand_accesses::cpu0.data       744568                       # number of demand (read+write) accesses
system.cpu0.dcache.demand_accesses::total       744568                       # number of demand (read+write) accesses
system.cpu0.dcache.overall_accesses::cpu0.data       744568                       # number of overall (read+write) accesses
system.cpu0.dcache.overall_accesses::total       744568                       # number of overall (read+write) accesses
system.cpu0.dcache.ReadReq_miss_rate::cpu0.data     0.620301                       # miss rate for ReadReq accesses
system.cpu0.dcache.ReadReq_miss_rate::total     0.620301                       # miss rate for ReadReq accesses
system.cpu0.dcache.WriteReq_miss_rate::cpu0.data     0.041291                       # miss rate for WriteReq accesses
system.cpu0.dcache.WriteReq_miss_rate::total     0.041291                       # miss rate for WriteReq accesses
system.cpu0.dcache.demand_miss_rate::cpu0.data     0.604330                       # miss rate for demand accesses
system.cpu0.dcache.demand_miss_rate::total     0.604330                       # miss rate for demand accesses
system.cpu0.dcache.overall_miss_rate::cpu0.data     0.604330                       # miss rate for overall accesses
system.cpu0.dcache.overall_miss_rate::total     0.604330                       # miss rate for overall accesses
system.cpu0.dcache.ReadReq_avg_miss_latency::cpu0.data 77254.562842                       # average ReadReq miss latency
system.cpu0.dcache.ReadReq_avg_miss_latency::total 77254.562842                       # average ReadReq miss latency
system.cpu0.dcache.WriteReq_avg_miss_latency::cpu0.data 35142.099057                       # average WriteReq miss latency
system.cpu0.dcache.WriteReq_avg_miss_latency::total 35142.099057                       # average WriteReq miss latency
system.cpu0.dcache.demand_avg_miss_latency::cpu0.data 77175.198071                       # average overall miss latency
system.cpu0.dcache.demand_avg_miss_latency::total 77175.198071                       # average overall miss latency
[...]
system.l2.ReadSharedReq_hits::cpu0.data         60916                       # number of ReadSharedReq hits
system.l2.ReadSharedReq_hits::total             60916                       # number of ReadSharedReq hits
system.l2.demand_hits::cpu0.data                61565                       # number of demand (read+write) hits
system.l2.demand_hits::total                    61565                       # number of demand (read+write) hits
system.l2.overall_hits::cpu0.data               61565                       # number of overall hits
system.l2.overall_hits::total                   61565                       # number of overall hits
system.l2.ReadExReq_misses::cpu0.data             195                       # number of ReadExReq misses
system.l2.ReadExReq_misses::total                 195                       # number of ReadExReq misses
system.l2.ReadSharedReq_misses::cpu0.data       192082                       # number of ReadSharedReq misses
system.l2.ReadSharedReq_misses::total          192082                       # number of ReadSharedReq misses
system.l2.demand_misses::cpu0.data             192277                       # number of demand (read+write) misses
system.l2.demand_misses::total                 192277                       # number of demand (read+write) misses
system.l2.overall_misses::cpu0.data            192277                       # number of overall misses
system.l2.overall_misses::total                192277                       # number of overall misses
system.l2.ReadExReq_miss_latency::cpu0.data     20553000                       # number of ReadExReq miss cycles
system.l2.ReadExReq_miss_latency::total      20553000                       # number of ReadExReq miss cycles
system.l2.ReadSharedReq_miss_latency::cpu0.data  18207041500                       # number of ReadSharedReq miss cycles
system.l2.ReadSharedReq_miss_latency::total  18207041500                       # number of ReadSharedReq miss cycles
system.l2.demand_miss_latency::cpu0.data  18227594500                       # number of demand (read+write) miss cycles
system.l2.demand_miss_latency::total      18227594500                       # number of demand (read+write) miss cycles
system.l2.overall_miss_latency::cpu0.data  18227594500                       # number of overall miss cycles
system.l2.overall_miss_latency::total     18227594500                       # number of overall miss cycles
system.l2.WritebackDirty_accesses::writebacks         2278                       # number of WritebackDirty accesses(hits+misses)
system.l2.WritebackDirty_accesses::total         2278                       # number of WritebackDirty accesses(hits+misses)
system.l2.ReadExReq_accesses::cpu0.data           844                       # number of ReadExReq accesses(hits+misses)
system.l2.ReadExReq_accesses::total               844                       # number of ReadExReq accesses(hits+misses)
system.l2.ReadSharedReq_accesses::cpu0.data       252998                       # number of ReadSharedReq accesses(hits+misses)
system.l2.ReadSharedReq_accesses::total        252998                       # number of ReadSharedReq accesses(hits+misses)
system.l2.demand_accesses::cpu0.data           253842                       # number of demand (read+write) accesses
system.l2.demand_accesses::total               253842                       # number of demand (read+write) accesses
system.l2.overall_accesses::cpu0.data          253842                       # number of overall (read+write) accesses
system.l2.overall_accesses::total              253842                       # number of overall (read+write) accesses
system.l2.ReadExReq_miss_rate::cpu0.data     0.231043                       # miss rate for ReadExReq accesses
system.l2.ReadExReq_miss_rate::total         0.231043                       # miss rate for ReadExReq accesses
system.l2.ReadSharedReq_miss_rate::cpu0.data     0.759223                       # miss rate for ReadSharedReq accesses
system.l2.ReadSharedReq_miss_rate::total     0.759223                       # miss rate for ReadSharedReq accesses
system.l2.demand_miss_rate::cpu0.data        0.757467                       # miss rate for demand accesses
system.l2.demand_miss_rate::total            0.757467                       # miss rate for demand accesses
system.l2.overall_miss_rate::cpu0.data       0.757467                       # miss rate for overall accesses
system.l2.overall_miss_rate::total           0.757467                       # miss rate for overall accesses
system.l2.ReadExReq_avg_miss_latency::cpu0.data       105400                       # average ReadExReq miss latency
system.l2.ReadExReq_avg_miss_latency::total       105400                       # average ReadExReq miss latency
system.l2.ReadSharedReq_avg_miss_latency::cpu0.data 94787.858831                       # average ReadSharedReq miss latency
system.l2.ReadSharedReq_avg_miss_latency::total 94787.858831                       # average ReadSharedReq miss latency
system.l2.demand_avg_miss_latency::cpu0.data 94798.621260                       # average overall miss latency
system.l2.demand_avg_miss_latency::total 94798.621260                       # average overall miss latency
system.l2.overall_avg_miss_latency::cpu0.data 94798.621260                       # average overall miss latency
system.l2.overall_avg_miss_latency::total 94798.621260                       # average overall miss latency
system.l2.blocked_cycles::no_mshrs                  0                       # number of cycles access was blocked
system.l2.blocked_cycles::no_targets                0                       # number of cycles access was blocked
system.l2.blocked::no_mshrs                         0                       # number of cycles access was blocked
system.l2.blocked::no_targets                       0                       # number of cycles access was blocked
system.l2.avg_blocked_cycles::no_mshrs            nan                       # average number of cycles each access was blocked
system.l2.avg_blocked_cycles::no_targets          nan                       # average number of cycles each access was blocked
system.l2.writebacks::writebacks                  295                       # number of writebacks
system.l2.writebacks::total                       295                       # number of writebacks
system.l2.ReadExReq_mshr_misses::cpu0.data          195                       # number of ReadExReq MSHR misses
system.l2.ReadExReq_mshr_misses::total            195                       # number of ReadExReq MSHR misses
system.l2.ReadSharedReq_mshr_misses::cpu0.data       192082                       # number of ReadSharedReq MSHR misses
system.l2.ReadSharedReq_mshr_misses::total       192082                       # number of ReadSharedReq MSHR misses
system.l2.demand_mshr_misses::cpu0.data        192277                       # number of demand (read+write) MSHR misses
system.l2.demand_mshr_misses::total            192277                       # number of demand (read+write) MSHR misses
system.l2.overall_mshr_misses::cpu0.data       192277                       # number of overall MSHR misses
system.l2.overall_mshr_misses::total           192277                       # number of overall MSHR misses
system.l2.ReadExReq_mshr_miss_latency::cpu0.data     18603000                       # number of ReadExReq MSHR miss cycles
system.l2.ReadExReq_mshr_miss_latency::total     18603000                       # number of ReadExReq MSHR miss cycles
system.l2.ReadSharedReq_mshr_miss_latency::cpu0.data  16286221500                       # number of ReadSharedReq MSHR miss cycles
system.l2.ReadSharedReq_mshr_miss_latency::total  16286221500                       # number of ReadSharedReq MSHR miss cycles
system.l2.demand_mshr_miss_latency::cpu0.data  16304824500                       # number of demand (read+write) MSHR miss cycles
system.l2.demand_mshr_miss_latency::total  16304824500                       # number of demand (read+write) MSHR miss cycles
system.l2.overall_mshr_miss_latency::cpu0.data  16304824500                       # number of overall MSHR miss cycles
system.l2.overall_mshr_miss_latency::total  16304824500                       # number of overall MSHR miss cycles
system.l2.ReadExReq_mshr_miss_rate::cpu0.data     0.231043                       # mshr miss rate for ReadExReq accesses
system.l2.ReadExReq_mshr_miss_rate::total     0.231043                       # mshr miss rate for ReadExReq accesses
system.l2.ReadSharedReq_mshr_miss_rate::cpu0.data     0.759223                       # mshr miss rate for ReadSharedReq accesses
system.l2.ReadSharedReq_mshr_miss_rate::total     0.759223                       # mshr miss rate for ReadSharedReq accesses
system.l2.demand_mshr_miss_rate::cpu0.data     0.757467                       # mshr miss rate for demand accesses
system.l2.demand_mshr_miss_rate::total       0.757467                       # mshr miss rate for demand accesses
system.l2.overall_mshr_miss_rate::cpu0.data     0.757467                       # mshr miss rate for overall accesses
system.l2.overall_mshr_miss_rate::total      0.757467                       # mshr miss rate for overall accesses
system.l2.ReadExReq_avg_mshr_miss_latency::cpu0.data        95400                       # average ReadExReq mshr miss latency
system.l2.ReadExReq_avg_mshr_miss_latency::total        95400                       # average ReadExReq mshr miss latency
system.l2.ReadSharedReq_avg_mshr_miss_latency::cpu0.data 84787.858831                       # average ReadSharedReq mshr miss latency
system.l2.ReadSharedReq_avg_mshr_miss_latency::total 84787.858831                       # average ReadSharedReq mshr miss latency
system.l2.demand_avg_mshr_miss_latency::cpu0.data 84798.621260                       # average overall mshr miss latency
system.l2.demand_avg_mshr_miss_latency::total 84798.621260                       # average overall mshr miss latency
system.l2.overall_avg_mshr_miss_latency::cpu0.data 84798.621260                       # average overall mshr miss latency
system.l2.overall_avg_mshr_miss_latency::total 84798.621260                       # average overall mshr miss latency
system.membus.snoop_filter.tot_requests        384554                       # Total number of requests made to the snoop filter.
system.membus.snoop_filter.hit_single_requests       192278                       # Number of requests hitting in the snoop filter with a single holder of the requested data.
system.membus.snoop_filter.hit_multi_requests            0                       # Number of requests hitting in the snoop filter with multiple (>1) holders of the requested data.
system.membus.snoop_filter.tot_snoops               0                       # Total number of snoops made to the snoop filter.
system.membus.snoop_filter.hit_single_snoops            0                       # Number of snoops hitting in the snoop filter with a single holder of the requested data.
system.membus.snoop_filter.hit_multi_snoops            0                       # Number of snoops hitting in the snoop filter with multiple (>1) holders of the requested data.
system.membus.pwrStateResidencyTicks::UNDEFINED  15267344125                       # Cumulative time (in ticks) in various power states
system.membus.trans_dist::ReadResp             192082                       # Transaction distribution
system.membus.trans_dist::WritebackDirty          295                       # Transaction distribution
system.membus.trans_dist::CleanEvict           191982                       # Transaction distribution
system.membus.trans_dist::ReadExReq               195                       # Transaction distribution
system.membus.trans_dist::ReadExResp              195                       # Transaction distribution
system.membus.trans_dist::ReadSharedReq        192082                       # Transaction distribution
system.membus.pkt_count_system.l2.mem_side::system.mem_ctrls.port       576831                       # Packet count per connected master and slave (bytes)
system.membus.pkt_count_system.l2.mem_side::total       576831                       # Packet count per connected master and slave (bytes)
system.membus.pkt_count::total                 576831                       # Packet count per connected master and slave (bytes)
system.membus.pkt_size_system.l2.mem_side::system.mem_ctrls.port     12324608                       # Cumulative packet size per connected master and slave (bytes)
system.membus.pkt_size_system.l2.mem_side::total     12324608                       # Cumulative packet size per connected master and slave (bytes)
system.membus.pkt_size::total                12324608                       # Cumulative packet size per connected master and slave (bytes)
system.membus.snoops                                0                       # Total snoops (count)
system.membus.snoopTraffic                          0                       # Total snoop traffic (bytes)
system.membus.snoop_fanout::samples            192277                       # Request fanout histogram
system.membus.snoop_fanout::mean                    0                       # Request fanout histogram
system.membus.snoop_fanout::stdev                   0                       # Request fanout histogram
system.membus.snoop_fanout::underflows              0      0.00%      0.00% # Request fanout histogram
system.membus.snoop_fanout::0                  192277    100.00%    100.00% # Request fanout histogram
system.membus.snoop_fanout::1                       0      0.00%    100.00% # Request fanout histogram
system.membus.snoop_fanout::overflows               0      0.00%    100.00% # Request fanout histogram
system.membus.snoop_fanout::min_value               0                       # Request fanout histogram
system.membus.snoop_fanout::max_value               0                       # Request fanout histogram
system.membus.snoop_fanout::total              192277                       # Request fanout histogram
system.membus.reqLayer8.occupancy           452364000                       # Layer occupancy (ticks)
system.membus.reqLayer8.utilization               3.0                       # Layer utilization (%)
system.membus.respLayer1.occupancy         1040383750                       # Layer occupancy (ticks)
system.membus.respLayer1.utilization              6.8                       # Layer utilization (%)
system.tol2bus.snoop_filter.tot_requests       507684                       # Total number of requests made to the snoop filter.
system.tol2bus.snoop_filter.hit_single_requests       253842                       # Number of requests hitting in the snoop filter with a single holder of the requested data.
system.tol2bus.snoop_filter.hit_multi_requests          315                       # Number of requests hitting in the snoop filter with multiple (>1) holders of the requested data.
system.tol2bus.snoop_filter.tot_snoops              0                       # Total number of snoops made to the snoop filter.
system.tol2bus.snoop_filter.hit_single_snoops            0                       # Number of snoops hitting in the snoop filter with a single holder of the requested data.
system.tol2bus.snoop_filter.hit_multi_snoops            0                       # Number of snoops hitting in the snoop filter with multiple (>1) holders of the requested data.
system.tol2bus.pwrStateResidencyTicks::UNDEFINED  15267344125                       # Cumulative time (in ticks) in various power states
system.tol2bus.trans_dist::ReadResp            252998                       # Transaction distribution
system.tol2bus.trans_dist::WritebackDirty         2573                       # Transaction distribution
system.tol2bus.trans_dist::CleanEvict          443546                       # Transaction distribution
system.tol2bus.trans_dist::ReadExReq              844                       # Transaction distribution
system.tol2bus.trans_dist::ReadExResp             844                       # Transaction distribution
system.tol2bus.trans_dist::ReadSharedReq       252998                       # Transaction distribution
system.tol2bus.pkt_count_system.cpu0.dcache.mem_side::system.l2.cpu_side       761526                       # Packet count per connected master and slave (bytes)
system.tol2bus.pkt_count::total                761526                       # Packet count per connected master and slave (bytes)
system.tol2bus.pkt_size_system.cpu0.dcache.mem_side::system.l2.cpu_side     16391680                       # Cumulative packet size per connected master and slave (bytes)
system.tol2bus.pkt_size::total               16391680                       # Cumulative packet size per connected master and slave (bytes)
system.tol2bus.snoops                          192277                       # Total snoops (count)
system.tol2bus.snoopTraffic                     18880                       # Total snoop traffic (bytes)
system.tol2bus.snoop_fanout::samples           446119                       # Request fanout histogram
system.tol2bus.snoop_fanout::mean            0.000706                       # Request fanout histogram
system.tol2bus.snoop_fanout::stdev           0.026563                       # Request fanout histogram
system.tol2bus.snoop_fanout::underflows             0      0.00%      0.00% # Request fanout histogram
system.tol2bus.snoop_fanout::0                 445804     99.93%     99.93% # Request fanout histogram
system.tol2bus.snoop_fanout::1                    315      0.07%    100.00% # Request fanout histogram
system.tol2bus.snoop_fanout::2                      0      0.00%    100.00% # Request fanout histogram
system.tol2bus.snoop_fanout::3                      0      0.00%    100.00% # Request fanout histogram
system.tol2bus.snoop_fanout::4                      0      0.00%    100.00% # Request fanout histogram
system.tol2bus.snoop_fanout::5                      0      0.00%    100.00% # Request fanout histogram
system.tol2bus.snoop_fanout::6                      0      0.00%    100.00% # Request fanout histogram
system.tol2bus.snoop_fanout::7                      0      0.00%    100.00% # Request fanout histogram
system.tol2bus.snoop_fanout::8                      0      0.00%    100.00% # Request fanout histogram
system.tol2bus.snoop_fanout::9                      0      0.00%    100.00% # Request fanout histogram
system.tol2bus.snoop_fanout::10                     0      0.00%    100.00% # Request fanout histogram
system.tol2bus.snoop_fanout::11                     0      0.00%    100.00% # Request fanout histogram
system.tol2bus.snoop_fanout::12                     0      0.00%    100.00% # Request fanout histogram
system.tol2bus.snoop_fanout::13                     0      0.00%    100.00% # Request fanout histogram
system.tol2bus.snoop_fanout::14                     0      0.00%    100.00% # Request fanout histogram
system.tol2bus.snoop_fanout::15                     0      0.00%    100.00% # Request fanout histogram
system.tol2bus.snoop_fanout::16                     0      0.00%    100.00% # Request fanout histogram
system.tol2bus.snoop_fanout::overflows              0      0.00%    100.00% # Request fanout histogram
system.tol2bus.snoop_fanout::min_value              0                       # Request fanout histogram
system.tol2bus.snoop_fanout::max_value              1                       # Request fanout histogram
system.tol2bus.snoop_fanout::total             446119                       # Request fanout histogram
system.tol2bus.reqLayer0.occupancy          256120000                       # Layer occupancy (ticks)
system.tol2bus.reqLayer0.utilization              1.7                       # Layer utilization (%)
system.tol2bus.respLayer1.occupancy         380763000                       # Layer occupancy (ticks)
system.tol2bus.respLayer1.utilization             2.5                       # Layer utilization (%)

---------- End Simulation Statistics   ----------
