
---------- Begin Simulation Statistics ----------
sim_seconds                                  0.015267                       # Number of seconds simulated
sim_ticks                                 15267344125                       # Number of ticks simulated
final_tick                               6885572200375                       # Number of ticks from beginning of simulation (restored from checkpoints and never reset)
sim_freq                                 1000000000000                       # Frequency of simulated ticks
host_inst_rate                              122155774                       # Simulator instruction rate (inst/s)
host_op_rate                                227595017                       # Simulator op (including micro ops) rate (op/s)
host_tick_rate                              310799972                       # Simulator tick rate (ticks/s)
host_mem_usage                                2332640                       # Number of bytes of host memory used
host_seconds                                    49.12                       # Real time elapsed on the host
sim_insts                                  6000621138                       # Number of instructions simulated
sim_ops                                   11180085450                       # Number of ops (including micro ops) simulated
system.voltage_domain.voltage                       1                       # Voltage in Volts
system.clk_domain.clock                          1000                       # Clock period in ticks
system.mem_ctrls.pwrStateResidencyTicks::UNDEFINED  15267344125                       # Cumulative time (in ticks) in various power states
system.mem_ctrls.bytes_read::cpu0.data       11906112                       # Number of bytes read from this memory
system.mem_ctrls.bytes_read::total           11906112                       # Number of bytes read from this memory
system.mem_ctrls.bytes_written::writebacks        21568                       # Number of bytes written to this memory
system.mem_ctrls.bytes_written::total           21568                       # Number of bytes written to this memory
system.mem_ctrls.num_reads::cpu0.data          186033                       # Number of read requests responded to by this memory
system.mem_ctrls.num_reads::total              186033                       # Number of read requests responded to by this memory
system.mem_ctrls.num_writes::writebacks           337                       # Number of write requests responded to by this memory
system.mem_ctrls.num_writes::total                337                       # Number of write requests responded to by this memory
system.mem_ctrls.bw_read::cpu0.data         779841726                       # Total read bandwidth from this memory (bytes/s)
system.mem_ctrls.bw_read::total             779841726                       # Total read bandwidth from this memory (bytes/s)
system.mem_ctrls.bw_write::writebacks         1412688                       # Write bandwidth from this memory (bytes/s)
system.mem_ctrls.bw_write::total              1412688                       # Write bandwidth from this memory (bytes/s)
system.mem_ctrls.bw_total::writebacks         1412688                       # Total bandwidth to/from this memory (bytes/s)
system.mem_ctrls.bw_total::cpu0.data        779841726                       # Total bandwidth to/from this memory (bytes/s)
system.mem_ctrls.bw_total::total            781254415                       # Total bandwidth to/from this memory (bytes/s)
system.mem_ctrls.readReqs                      186033                       # Number of read requests accepted
system.mem_ctrls.writeReqs                        337                       # Number of write requests accepted
system.mem_ctrls.readBursts                    186033                       # Number of DRAM read bursts, including those serviced by the write queue
system.mem_ctrls.writeBursts                      337                       # Number of DRAM write bursts, including those merged in the write queue
system.mem_ctrls.bytesReadDRAM               11903232                       # Total number of bytes read from DRAM
system.mem_ctrls.bytesReadWrQ                    2880                       # Total number of bytes read from write queue
system.mem_ctrls.bytesWritten                   21504                       # Total number of bytes written to DRAM
system.mem_ctrls.bytesReadSys                11906112                       # Total read bytes from the system interface side
system.mem_ctrls.bytesWrittenSys                21568                       # Total written bytes from the system interface side
system.mem_ctrls.servicedByWrQ                     45                       # Number of DRAM read bursts serviced by the write queue
system.mem_ctrls.mergedWrBursts                     0                       # Number of DRAM write bursts merged with an existing one
system.mem_ctrls.neitherReadNorWriteReqs            0                       # Number of requests that are neither read nor write
system.mem_ctrls.perBankRdBursts::0             11639                       # Per bank write bursts
system.mem_ctrls.perBankRdBursts::1             11586                       # Per bank write bursts
system.mem_ctrls.perBankRdBursts::2             11437                       # Per bank write bursts
system.mem_ctrls.perBankRdBursts::3             11319                       # Per bank write bursts
system.mem_ctrls.perBankRdBursts::4             11428                       # Per bank write bursts
system.mem_ctrls.perBankRdBursts::5             11715                       # Per bank write bursts
system.mem_ctrls.perBankRdBursts::6             11899                       # Per bank write bursts
system.mem_ctrls.perBankRdBursts::7             11539                       # Per bank write bursts
system.mem_ctrls.perBankRdBursts::8             11472                       # Per bank write bursts
system.mem_ctrls.perBankRdBursts::9             11521                       # Per bank write bursts
system.mem_ctrls.perBankRdBursts::10            11380                       # Per bank write bursts
system.mem_ctrls.perBankRdBursts::11            11505                       # Per bank write bursts
system.mem_ctrls.perBankRdBursts::12            11921                       # Per bank write bursts
system.mem_ctrls.perBankRdBursts::13            12060                       # Per bank write bursts
system.mem_ctrls.perBankRdBursts::14            11931                       # Per bank write bursts
system.mem_ctrls.perBankRdBursts::15            11636                       # Per bank write bursts
system.mem_ctrls.perBankWrBursts::0                 0                       # Per bank write bursts
system.mem_ctrls.perBankWrBursts::1                 0                       # Per bank write bursts
system.mem_ctrls.perBankWrBursts::2                12                       # Per bank write bursts
system.mem_ctrls.perBankWrBursts::3                 0                       # Per bank write bursts
system.mem_ctrls.perBankWrBursts::4                 0                       # Per bank write bursts
system.mem_ctrls.perBankWrBursts::5                 0                       # Per bank write bursts
system.mem_ctrls.perBankWrBursts::6                 0                       # Per bank write bursts
system.mem_ctrls.perBankWrBursts::7                 0                       # Per bank write bursts
system.mem_ctrls.perBankWrBursts::8                 0                       # Per bank write bursts
system.mem_ctrls.perBankWrBursts::9                 0                       # Per bank write bursts
system.mem_ctrls.perBankWrBursts::10                0                       # Per bank write bursts
system.mem_ctrls.perBankWrBursts::11               23                       # Per bank write bursts
system.mem_ctrls.perBankWrBursts::12              109                       # Per bank write bursts
system.mem_ctrls.perBankWrBursts::13              116                       # Per bank write bursts
system.mem_ctrls.perBankWrBursts::14               76                       # Per bank write bursts
system.mem_ctrls.perBankWrBursts::15                0                       # Per bank write bursts
system.mem_ctrls.numRdRetry                         0                       # Number of times read queue was full causing retry
system.mem_ctrls.numWrRetry                         0                       # Number of times write queue was full causing retry
system.mem_ctrls.totGap                   15264127500                       # Total gap between requests
system.mem_ctrls.readPktSize::0                     0                       # Read request sizes (log2)
system.mem_ctrls.readPktSize::1                     0                       # Read request sizes (log2)
system.mem_ctrls.readPktSize::2                     0                       # Read request sizes (log2)
system.mem_ctrls.readPktSize::3                     0                       # Read request sizes (log2)
system.mem_ctrls.readPktSize::4                     0                       # Read request sizes (log2)
system.mem_ctrls.readPktSize::5                     0                       # Read request sizes (log2)
system.mem_ctrls.readPktSize::6                186033                       # Read request sizes (log2)
system.mem_ctrls.writePktSize::0                    0                       # Write request sizes (log2)
system.mem_ctrls.writePktSize::1                    0                       # Write request sizes (log2)
system.mem_ctrls.writePktSize::2                    0                       # Write request sizes (log2)
system.mem_ctrls.writePktSize::3                    0                       # Write request sizes (log2)
system.mem_ctrls.writePktSize::4                    0                       # Write request sizes (log2)
system.mem_ctrls.writePktSize::5                    0                       # Write request sizes (log2)
system.mem_ctrls.writePktSize::6                  337                       # Write request sizes (log2)
system.mem_ctrls.rdQLenPdf::0                  141155                       # What read queue length does an incoming req see
system.mem_ctrls.rdQLenPdf::1                   41759                       # What read queue length does an incoming req see
system.mem_ctrls.rdQLenPdf::2                    2995                       # What read queue length does an incoming req see
system.mem_ctrls.rdQLenPdf::3                      79                       # What read queue length does an incoming req see
system.mem_ctrls.rdQLenPdf::4                       0                       # What read queue length does an incoming req see
system.mem_ctrls.rdQLenPdf::5                       0                       # What read queue length does an incoming req see
system.mem_ctrls.rdQLenPdf::6                       0                       # What read queue length does an incoming req see
system.mem_ctrls.rdQLenPdf::7                       0                       # What read queue length does an incoming req see
system.mem_ctrls.rdQLenPdf::8                       0                       # What read queue length does an incoming req see
system.mem_ctrls.rdQLenPdf::9                       0                       # What read queue length does an incoming req see
system.mem_ctrls.rdQLenPdf::10                      0                       # What read queue length does an incoming req see
system.mem_ctrls.rdQLenPdf::11                      0                       # What read queue length does an incoming req see
system.mem_ctrls.rdQLenPdf::12                      0                       # What read queue length does an incoming req see
system.mem_ctrls.rdQLenPdf::13                      0                       # What read queue length does an incoming req see
system.mem_ctrls.rdQLenPdf::14                      0                       # What read queue length does an incoming req see
system.mem_ctrls.rdQLenPdf::15                      0                       # What read queue length does an incoming req see
system.mem_ctrls.rdQLenPdf::16                      0                       # What read queue length does an incoming req see
system.mem_ctrls.rdQLenPdf::17                      0                       # What read queue length does an incoming req see
system.mem_ctrls.rdQLenPdf::18                      0                       # What read queue length does an incoming req see
system.mem_ctrls.rdQLenPdf::19                      0                       # What read queue length does an incoming req see
system.mem_ctrls.rdQLenPdf::20                      0                       # What read queue length does an incoming req see
system.mem_ctrls.rdQLenPdf::21                      0                       # What read queue length does an incoming req see
system.mem_ctrls.rdQLenPdf::22                      0                       # What read queue length does an incoming req see
system.mem_ctrls.rdQLenPdf::23                      0                       # What read queue length does an incoming req see
system.mem_ctrls.rdQLenPdf::24                      0                       # What read queue length does an incoming req see
system.mem_ctrls.rdQLenPdf::25                      0                       # What read queue length does an incoming req see
system.mem_ctrls.rdQLenPdf::26                      0                       # What read queue length does an incoming req see
system.mem_ctrls.rdQLenPdf::27                      0                       # What read queue length does an incoming req see
system.mem_ctrls.rdQLenPdf::28                      0                       # What read queue length does an incoming req see
system.mem_ctrls.rdQLenPdf::29                      0                       # What read queue length does an incoming req see
system.mem_ctrls.rdQLenPdf::30                      0                       # What read queue length does an incoming req see
system.mem_ctrls.rdQLenPdf::31                      0                       # What read queue length does an incoming req see
system.mem_ctrls.wrQLenPdf::0                       0                       # What write queue length does an incoming req see
system.mem_ctrls.wrQLenPdf::1                       0                       # What write queue length does an incoming req see
system.mem_ctrls.wrQLenPdf::2                       0                       # What write queue length does an incoming req see
system.mem_ctrls.wrQLenPdf::3                       0                       # What write queue length does an incoming req see
system.mem_ctrls.wrQLenPdf::4                       0                       # What write queue length does an incoming req see
system.mem_ctrls.wrQLenPdf::5                       0                       # What write queue length does an incoming req see
system.mem_ctrls.wrQLenPdf::6                       0                       # What write queue length does an incoming req see
system.mem_ctrls.wrQLenPdf::7                       0                       # What write queue length does an incoming req see
system.mem_ctrls.wrQLenPdf::8                       0                       # What write queue length does an incoming req see
system.mem_ctrls.wrQLenPdf::9                       0                       # What write queue length does an incoming req see
system.mem_ctrls.wrQLenPdf::10                      0                       # What write queue length does an incoming req see
system.mem_ctrls.wrQLenPdf::11                      0                       # What write queue length does an incoming req see
system.mem_ctrls.wrQLenPdf::12                      0                       # What write queue length does an incoming req see
system.mem_ctrls.wrQLenPdf::13                      0                       # What write queue length does an incoming req see
system.mem_ctrls.wrQLenPdf::14                      0                       # What write queue length does an incoming req see
system.mem_ctrls.wrQLenPdf::15                      0                       # What write queue length does an incoming req see
system.mem_ctrls.wrQLenPdf::16                      0                       # What write queue length does an incoming req see
system.mem_ctrls.wrQLenPdf::17                     21                       # What write queue length does an incoming req see
system.mem_ctrls.wrQLenPdf::18                     21                       # What write queue length does an incoming req see
system.mem_ctrls.wrQLenPdf::19                     22                       # What write queue length does an incoming req see
system.mem_ctrls.wrQLenPdf::20                     21                       # What write queue length does an incoming req see
system.mem_ctrls.wrQLenPdf::21                     21                       # What write queue length does an incoming req see
system.mem_ctrls.wrQLenPdf::22                     21                       # What write queue length does an incoming req see
system.mem_ctrls.wrQLenPdf::23                     21                       # What write queue length does an incoming req see
system.mem_ctrls.wrQLenPdf::24                     21                       # What write queue length does an incoming req see
system.mem_ctrls.wrQLenPdf::25                     21                       # What write queue length does an incoming req see
system.mem_ctrls.wrQLenPdf::26                     21                       # What write queue length does an incoming req see
system.mem_ctrls.wrQLenPdf::27                     21                       # What write queue length does an incoming req see
system.mem_ctrls.wrQLenPdf::28                     21                       # What write queue length does an incoming req see
system.mem_ctrls.wrQLenPdf::29                     21                       # What write queue length does an incoming req see
system.mem_ctrls.wrQLenPdf::30                     21                       # What write queue length does an incoming req see
system.mem_ctrls.wrQLenPdf::31                     21                       # What write queue length does an incoming req see
system.mem_ctrls.wrQLenPdf::32                     21                       # What write queue length does an incoming req see
system.mem_ctrls.wrQLenPdf::33                      0                       # What write queue length does an incoming req see
system.mem_ctrls.wrQLenPdf::34                      0                       # What write queue length does an incoming req see
system.mem_ctrls.wrQLenPdf::35                      0                       # What write queue length does an incoming req see
system.mem_ctrls.wrQLenPdf::36                      0                       # What write queue length does an incoming req see
system.mem_ctrls.wrQLenPdf::37                      0                       # What write queue length does an incoming req see
system.mem_ctrls.wrQLenPdf::38                      0                       # What write queue length does an incoming req see
system.mem_ctrls.wrQLenPdf::39                      0                       # What write queue length does an incoming req see
system.mem_ctrls.wrQLenPdf::40                      0                       # What write queue length does an incoming req see
system.mem_ctrls.wrQLenPdf::41                      0                       # What write queue length does an incoming req see
system.mem_ctrls.wrQLenPdf::42                      0                       # What write queue length does an incoming req see
system.mem_ctrls.wrQLenPdf::43                      0                       # What write queue length does an incoming req see
system.mem_ctrls.wrQLenPdf::44                      0                       # What write queue length does an incoming req see
system.mem_ctrls.wrQLenPdf::45                      0                       # What write queue length does an incoming req see
system.mem_ctrls.wrQLenPdf::46                      0                       # What write queue length does an incoming req see
system.mem_ctrls.wrQLenPdf::47                      0                       # What write queue length does an incoming req see
system.mem_ctrls.wrQLenPdf::48                      0                       # What write queue length does an incoming req see
system.mem_ctrls.wrQLenPdf::49                      0                       # What write queue length does an incoming req see
system.mem_ctrls.wrQLenPdf::50                      0                       # What write queue length does an incoming req see
system.mem_ctrls.wrQLenPdf::51                      0                       # What write queue length does an incoming req see
system.mem_ctrls.wrQLenPdf::52                      0                       # What write queue length does an incoming req see
system.mem_ctrls.wrQLenPdf::53                      0                       # What write queue length does an incoming req see
system.mem_ctrls.wrQLenPdf::54                      0                       # What write queue length does an incoming req see
system.mem_ctrls.wrQLenPdf::55                      0                       # What write queue length does an incoming req see
system.mem_ctrls.wrQLenPdf::56                      0                       # What write queue length does an incoming req see
system.mem_ctrls.wrQLenPdf::57                      0                       # What write queue length does an incoming req see
system.mem_ctrls.wrQLenPdf::58                      0                       # What write queue length does an incoming req see
system.mem_ctrls.wrQLenPdf::59                      0                       # What write queue length does an incoming req see
system.mem_ctrls.wrQLenPdf::60                      0                       # What write queue length does an incoming req see
system.mem_ctrls.wrQLenPdf::61                      0                       # What write queue length does an incoming req see
system.mem_ctrls.wrQLenPdf::62                      0                       # What write queue length does an incoming req see
system.mem_ctrls.wrQLenPdf::63                      0                       # What write queue length does an incoming req see
system.mem_ctrls.bytesPerActivate::samples        96679                       # Bytes accessed per row activation
system.mem_ctrls.bytesPerActivate::mean    123.358827                       # Bytes accessed per row activation
system.mem_ctrls.bytesPerActivate::gmean   106.331192                       # Bytes accessed per row activation
system.mem_ctrls.bytesPerActivate::stdev    73.882078                       # Bytes accessed per row activation
system.mem_ctrls.bytesPerActivate::0-127        44795     46.33%     46.33% # Bytes accessed per row activation
system.mem_ctrls.bytesPerActivate::128-255        42349     43.80%     90.14% # Bytes accessed per row activation
system.mem_ctrls.bytesPerActivate::256-383         8339      8.63%     98.76% # Bytes accessed per row activation
system.mem_ctrls.bytesPerActivate::384-511         1075      1.11%     99.87% # Bytes accessed per row activation
system.mem_ctrls.bytesPerActivate::512-639           95      0.10%     99.97% # Bytes accessed per row activation
system.mem_ctrls.bytesPerActivate::640-767           13      0.01%     99.99% # Bytes accessed per row activation
system.mem_ctrls.bytesPerActivate::768-895            4      0.00%     99.99% # Bytes accessed per row activation
system.mem_ctrls.bytesPerActivate::896-1023            3      0.00%     99.99% # Bytes accessed per row activation
system.mem_ctrls.bytesPerActivate::1024-1151            6      0.01%    100.00% # Bytes accessed per row activation
system.mem_ctrls.bytesPerActivate::total        96679                       # Bytes accessed per row activation
system.mem_ctrls.rdPerTurnAround::samples           21                       # Reads before turning the bus around for writes
system.mem_ctrls.rdPerTurnAround::mean    8807.047619                       # Reads before turning the bus around for writes
system.mem_ctrls.rdPerTurnAround::gmean   8493.778948                       # Reads before turning the bus around for writes
system.mem_ctrls.rdPerTurnAround::stdev   2480.161617                       # Reads before turning the bus around for writes
system.mem_ctrls.rdPerTurnAround::4096-4607            1      4.76%      4.76% # Reads before turning the bus around for writes
system.mem_ctrls.rdPerTurnAround::6144-6655            2      9.52%     14.29% # Reads before turning the bus around for writes
system.mem_ctrls.rdPerTurnAround::6656-7167            2      9.52%     23.81% # Reads before turning the bus around for writes
system.mem_ctrls.rdPerTurnAround::7168-7679            3     14.29%     38.10% # Reads before turning the bus around for writes
system.mem_ctrls.rdPerTurnAround::7680-8191            3     14.29%     52.38% # Reads before turning the bus around for writes
system.mem_ctrls.rdPerTurnAround::8192-8703            2      9.52%     61.90% # Reads before turning the bus around for writes
system.mem_ctrls.rdPerTurnAround::8704-9215            2      9.52%     71.43% # Reads before turning the bus around for writes
system.mem_ctrls.rdPerTurnAround::9216-9727            1      4.76%     76.19% # Reads before turning the bus around for writes
system.mem_ctrls.rdPerTurnAround::10240-10751            1      4.76%     80.95% # Reads before turning the bus around for writes
system.mem_ctrls.rdPerTurnAround::12288-12799            1      4.76%     85.71% # Reads before turning the bus around for writes
system.mem_ctrls.rdPerTurnAround::12800-13311            1      4.76%     90.48% # Reads before turning the bus around for writes
system.mem_ctrls.rdPerTurnAround::13312-13823            2      9.52%    100.00% # Reads before turning the bus around for writes
system.mem_ctrls.rdPerTurnAround::total            21                       # Reads before turning the bus around for writes
system.mem_ctrls.wrPerTurnAround::samples           21                       # Writes before turning the bus around for reads
system.mem_ctrls.wrPerTurnAround::mean             16                       # Writes before turning the bus around for reads
system.mem_ctrls.wrPerTurnAround::gmean     16.000000                       # Writes before turning the bus around for reads
system.mem_ctrls.wrPerTurnAround::16               21    100.00%    100.00% # Writes before turning the bus around for reads
system.mem_ctrls.wrPerTurnAround::total            21                       # Writes before turning the bus around for reads
system.mem_ctrls.totQLat                   4560740000                       # Total ticks spent queuing
system.mem_ctrls.totMemAccLat              8048015000                       # Total ticks spent from burst creation until serviced by the DRAM
system.mem_ctrls.totBusLat                  929940000                       # Total ticks spent in databus transfers
system.mem_ctrls.avgQLat                     24521.69                       # Average queueing delay per DRAM burst
system.mem_ctrls.avgBusLat                    5000.00                       # Average bus latency per DRAM burst
system.mem_ctrls.avgMemAccLat                43271.69                       # Average memory access latency per DRAM burst
system.mem_ctrls.avgRdBW                       779.65                       # Average DRAM read bandwidth in MiByte/s
system.mem_ctrls.avgWrBW                         1.41                       # Average achieved write bandwidth in MiByte/s
system.mem_ctrls.avgRdBWSys                    779.84                       # Average system read bandwidth in MiByte/s
system.mem_ctrls.avgWrBWSys                      1.41                       # Average system write bandwidth in MiByte/s
system.mem_ctrls.peakBW                      12800.00                       # Theoretical peak bandwidth in MiByte/s
system.mem_ctrls.busUtil                         6.10                       # Data bus utilization in percentage
system.mem_ctrls.busUtilRead                     6.09                       # Data bus utilization in percentage for reads
system.mem_ctrls.busUtilWrite                    0.01                       # Data bus utilization in percentage for writes
system.mem_ctrls.avgRdQLen                       1.31                       # Average read queue length when enqueuing
system.mem_ctrls.avgWrQLen                      25.34                       # Average write queue length when enqueuing
system.mem_ctrls.readRowHits                    89369                       # Number of row buffer hits during reads
system.mem_ctrls.writeRowHits                     290                       # Number of row buffer hits during writes
system.mem_ctrls.readRowHitRate                 48.05                       # Row buffer hit rate for reads
system.mem_ctrls.writeRowHitRate                86.05                       # Row buffer hit rate for writes
system.mem_ctrls.avgGap                      81902.28                       # Average gap between requests
system.mem_ctrls.pageHitRate                    48.12                       # Row buffer hit rate, read and write combined
system.mem_ctrls_0.actEnergy                343155540                       # Energy for activate commands per rank (pJ)
system.mem_ctrls_0.preEnergy                182414265                       # Energy for precharge commands per rank (pJ)
system.mem_ctrls_0.readEnergy               660892680                       # Energy for read commands per rank (pJ)
system.mem_ctrls_0.writeEnergy                  62640                       # Energy for write commands per rank (pJ)
system.mem_ctrls_0.refreshEnergy         1205309040.000000                       # Energy for refresh commands per rank (pJ)
system.mem_ctrls_0.actBackEnergy           1575643020                       # Energy for active background per rank (pJ)
system.mem_ctrls_0.preBackEnergy             24801120                       # Energy for precharge background per rank (pJ)
system.mem_ctrls_0.actPowerDownEnergy      5157680340                       # Energy for active power-down per rank (pJ)
system.mem_ctrls_0.prePowerDownEnergy       165332640                       # Energy for precharge power-down per rank (pJ)
system.mem_ctrls_0.selfRefreshEnergy          2027040                       # Energy for self refresh per rank (pJ)
system.mem_ctrls_0.totalEnergy             9317318325                       # Total energy per rank (pJ)
system.mem_ctrls_0.averagePower            610.277613                       # Core power per rank (mW)
system.mem_ctrls_0.totalIdleTime          11743320500                       # Total Idle time Per DRAM Rank
system.mem_ctrls_0.memoryStateTime::IDLE     10062000                       # Time in different power states
system.mem_ctrls_0.memoryStateTime::REF     509866000                       # Time in different power states
system.mem_ctrls_0.memoryStateTime::SREF      6144000                       # Time in different power states
system.mem_ctrls_0.memoryStateTime::PRE_PDN    430113625                       # Time in different power states
system.mem_ctrls_0.memoryStateTime::ACT    3001417750                       # Time in different power states
system.mem_ctrls_0.memoryStateTime::ACT_PDN  11309740750                       # Time in different power states
system.mem_ctrls_1.actEnergy                347032560                       # Energy for activate commands per rank (pJ)
system.mem_ctrls_1.preEnergy                184482540                       # Energy for precharge commands per rank (pJ)
system.mem_ctrls_1.readEnergy               667061640                       # Energy for read commands per rank (pJ)
system.mem_ctrls_1.writeEnergy                1691280                       # Energy for write commands per rank (pJ)
system.mem_ctrls_1.refreshEnergy         1205309040.000000                       # Energy for refresh commands per rank (pJ)
system.mem_ctrls_1.actBackEnergy           1591552860                       # Energy for active background per rank (pJ)
system.mem_ctrls_1.preBackEnergy             24772320                       # Energy for precharge background per rank (pJ)
system.mem_ctrls_1.actPowerDownEnergy      5139273900                       # Energy for active power-down per rank (pJ)
system.mem_ctrls_1.prePowerDownEnergy       168628800                       # Energy for precharge power-down per rank (pJ)
system.mem_ctrls_1.selfRefreshEnergy          1298940                       # Energy for self refresh per rank (pJ)
system.mem_ctrls_1.totalEnergy             9331103880                       # Total energy per rank (pJ)
system.mem_ctrls_1.averagePower            611.180557                       # Core power per rank (mW)
system.mem_ctrls_1.totalIdleTime          11705961750                       # Total Idle time Per DRAM Rank
system.mem_ctrls_1.memoryStateTime::IDLE     10074000                       # Time in different power states
system.mem_ctrls_1.memoryStateTime::REF     509866000                       # Time in different power states
system.mem_ctrls_1.memoryStateTime::SREF      3111250                       # Time in different power states
system.mem_ctrls_1.memoryStateTime::PRE_PDN    438811625                       # Time in different power states
system.mem_ctrls_1.memoryStateTime::ACT    3035619250                       # Time in different power states
system.mem_ctrls_1.memoryStateTime::ACT_PDN  11269862000                       # Time in different power states
system.pwrStateResidencyTicks::UNDEFINED  15267344125                       # Cumulative time (in ticks) in various power states
system.cpu0.branchPred.lookups                1895451                       # Number of BP lookups
system.cpu0.branchPred.condPredicted          1895451                       # Number of conditional branches predicted
system.cpu0.branchPred.condIncorrect            75883                       # Number of conditional branches incorrect
system.cpu0.branchPred.BTBLookups             1493668                       # Number of BTB lookups
system.cpu0.branchPred.BTBHits                      0                       # Number of BTB hits
system.cpu0.branchPred.BTBCorrect                   0                       # Number of correct BTB predictions (this stat may not work properly.
system.cpu0.branchPred.BTBHitPct             0.000000                       # BTB Hit Percentage
system.cpu0.branchPred.usedRAS                  44320                       # Number of times the RAS was used to get a target.
system.cpu0.branchPred.RASInCorrect              6284                       # Number of incorrect RAS predictions.
system.cpu0.branchPred.indirectLookups        1493668                       # Number of indirect predictor lookups.
system.cpu0.branchPred.indirectHits            815174                       # Number of indirect target hits.
system.cpu0.branchPred.indirectMisses          678494                       # Number of indirect misses.
system.cpu0.branchPredindirectMispredicted        24007                       # Number of mispredicted indirect branches.
system.cpu_voltage_domain.voltage                   1                       # Voltage in Volts
system.cpu_clk_domain.clock                       500                       # Clock period in ticks
system.cpu0.dtb.walker.pwrStateResidencyTicks::UNDEFINED  15267344125                       # Cumulative time (in ticks) in various power states
system.cpu0.dtb.rdAccesses                     865329                       # TLB accesses on read requests
system.cpu0.dtb.wrAccesses                      45040                       # TLB accesses on write requests
system.cpu0.dtb.rdMisses                       179108                       # TLB misses on read requests
system.cpu0.dtb.wrMisses                          840                       # TLB misses on write requests
system.cpu0.apic_clk_domain.clock                8000                       # Clock period in ticks
system.cpu0.interrupts.pwrStateResidencyTicks::UNDEFINED  15267344125                       # Cumulative time (in ticks) in various power states
system.cpu0.itb.walker.pwrStateResidencyTicks::UNDEFINED  15267344125                       # Cumulative time (in ticks) in various power states
system.cpu0.itb.rdAccesses                          0                       # TLB accesses on read requests
system.cpu0.itb.wrAccesses                    1601218                       # TLB accesses on write requests
system.cpu0.itb.rdMisses                            0                       # TLB misses on read requests
system.cpu0.itb.wrMisses                         4275                       # TLB misses on write requests
system.cpu0.workload.numSyscalls                    0                       # Number of system calls
system.cpu0.pwrStateResidencyTicks::ON    15267344125                       # Cumulative time (in ticks) in various power states
system.cpu0.numCycles                        30534688                       # number of cpu cycles simulated
system.cpu0.numWorkItemsStarted                     0                       # number of work items this cpu started
system.cpu0.numWorkItemsCompleted                   0                       # number of work items this cpu completed
system.cpu0.fetch.icacheStallCycles           1634583                       # Number of cycles fetch is stalled on an Icache miss
system.cpu0.fetch.Insts                       5405689                       # Number of instructions fetch has processed
system.cpu0.fetch.Branches                    1895451                       # Number of branches that fetch encountered
system.cpu0.fetch.predictedBranches            859494                       # Number of branches that fetch has predicted taken
system.cpu0.fetch.Cycles                     28750780                       # Number of cycles fetch has run and was not squashing or blocked
system.cpu0.fetch.SquashCycles                 154482                       # Number of cycles fetch has spent squashing
system.cpu0.fetch.TlbCycles                      1928                       # Number of cycles fetch has spent waiting for tlb
system.cpu0.fetch.MiscStallCycles                 944                       # Number of cycles fetch has spent waiting on interrupts, or bad addresses, or out of MSHRs
system.cpu0.fetch.PendingTrapStallCycles        36400                       # Number of stall cycles due to pending traps
system.cpu0.fetch.CacheLines                  1596943                       # Number of cache lines fetched
system.cpu0.fetch.IcacheSquashes                 9360                       # Number of outstanding Icache misses that were squashed
system.cpu0.fetch.ItlbSquashes                      3                       # Number of outstanding ITLB misses that were squashed
system.cpu0.fetch.rateDist::samples          30501876                       # Number of instructions fetched each cycle (Total)
system.cpu0.fetch.rateDist::mean             0.355750                       # Number of instructions fetched each cycle (Total)
system.cpu0.fetch.rateDist::stdev            1.495434                       # Number of instructions fetched each cycle (Total)
system.cpu0.fetch.rateDist::underflows              0      0.00%      0.00% # Number of instructions fetched each cycle (Total)
system.cpu0.fetch.rateDist::0                28382050     93.05%     93.05% # Number of instructions fetched each cycle (Total)
system.cpu0.fetch.rateDist::1                   24387      0.08%     93.13% # Number of instructions fetched each cycle (Total)
system.cpu0.fetch.rateDist::2                  806742      2.64%     95.78% # Number of instructions fetched each cycle (Total)
system.cpu0.fetch.rateDist::3                   22823      0.07%     95.85% # Number of instructions fetched each cycle (Total)
system.cpu0.fetch.rateDist::4                  149065      0.49%     96.34% # Number of instructions fetched each cycle (Total)
system.cpu0.fetch.rateDist::5                   60534      0.20%     96.54% # Number of instructions fetched each cycle (Total)
system.cpu0.fetch.rateDist::6                   91088      0.30%     96.84% # Number of instructions fetched each cycle (Total)
system.cpu0.fetch.rateDist::7                   22266      0.07%     96.91% # Number of instructions fetched each cycle (Total)
system.cpu0.fetch.rateDist::8                  942921      3.09%    100.00% # Number of instructions fetched each cycle (Total)
system.cpu0.fetch.rateDist::overflows               0      0.00%    100.00% # Number of instructions fetched each cycle (Total)
system.cpu0.fetch.rateDist::min_value               0                       # Number of instructions fetched each cycle (Total)
system.cpu0.fetch.rateDist::max_value               8                       # Number of instructions fetched each cycle (Total)
system.cpu0.fetch.rateDist::total            30501876                       # Number of instructions fetched each cycle (Total)
system.cpu0.fetch.branchRate                 0.062075                       # Number of branch fetches per cycle
system.cpu0.fetch.rate                       0.177034                       # Number of inst fetches per cycle
system.cpu0.decode.IdleCycles                  807025                       # Number of cycles decode is idle
system.cpu0.decode.BlockedCycles             28228426                       # Number of cycles decode is blocked
system.cpu0.decode.RunCycles                  1034178                       # Number of cycles decode is running
system.cpu0.decode.UnblockCycles               355006                       # Number of cycles decode is unblocking
system.cpu0.decode.SquashCycles                 77241                       # Number of cycles decode is squashing
system.cpu0.decode.DecodedInsts               8920008                       # Number of instructions handled by decode
system.cpu0.rename.SquashCycles                 77241                       # Number of cycles rename is squashing
system.cpu0.rename.IdleCycles                  915910                       # Number of cycles rename is idle
system.cpu0.rename.BlockCycles               26852742                       # Number of cycles rename is blocking
system.cpu0.rename.serializeStallCycles         23181                       # count of cycles rename stalled for serializing inst
system.cpu0.rename.RunCycles                  1193255                       # Number of cycles rename is running
system.cpu0.rename.UnblockCycles              1439547                       # Number of cycles rename is unblocking
system.cpu0.rename.RenamedInsts               8566816                       # Number of instructions processed by rename
system.cpu0.rename.ROBFullEvents                63332                       # Number of times rename has blocked due to ROB full
system.cpu0.rename.IQFullEvents               1163035                       # Number of times rename has blocked due to IQ full
system.cpu0.rename.LQFullEvents                226950                       # Number of times rename has blocked due to LQ full
system.cpu0.rename.SQFullEvents                   499                       # Number of times rename has blocked due to SQ full
system.cpu0.rename.RenamedOperands           10228752                       # Number of destination operands rename has renamed
system.cpu0.rename.RenameLookups             23997111                       # Number of register rename lookups that rename has made
system.cpu0.rename.int_rename_lookups        11128150                       # Number of integer rename lookups
system.cpu0.rename.fp_rename_lookups            35169                       # Number of floating rename lookups
system.cpu0.rename.CommittedMaps              3546026                       # Number of HB maps that are committed
system.cpu0.rename.UndoneMaps                 6682726                       # Number of HB maps that are undone due to squashing
system.cpu0.rename.serializingInsts               309                       # count of serializing insts renamed
system.cpu0.rename.tempSerializingInsts           360                       # count of temporary serializing insts renamed
system.cpu0.rename.skidInsts                  2246146                       # count of insts added to the skid buffer
system.cpu0.memDep0.insertedLoads             1580353                       # Number of loads inserted to the mem dependence unit.
system.cpu0.memDep0.insertedStores              65820                       # Number of stores inserted to the mem dependence unit.
system.cpu0.memDep0.conflictingLoads             3894                       # Number of conflicting loads.
system.cpu0.memDep0.conflictingStores            3782                       # Number of conflicting stores.
system.cpu0.iq.iqInstsAdded                   8151415                       # Number of instructions added to the IQ (excludes non-spec)
system.cpu0.iq.iqNonSpecInstsAdded               3679                       # Number of non-speculative instructions added to the IQ
system.cpu0.iq.iqInstsIssued                  5734895                       # Number of instructions issued
system.cpu0.iq.iqSquashedInstsIssued             5987                       # Number of squashed instructions issued
system.cpu0.iq.iqSquashedInstsExamined        5195613                       # Number of squashed instructions iterated over during squash; mainly for profiling
system.cpu0.iq.iqSquashedOperandsExamined     11198462                       # Number of squashed operands that are examined and possibly removed from graph
system.cpu0.iq.iqSquashedNonSpecRemoved          3679                       # Number of squashed non-spec instructions that were removed
system.cpu0.iq.issued_per_cycle::samples     30501876                       # Number of insts issued each cycle
system.cpu0.iq.issued_per_cycle::mean        0.188018                       # Number of insts issued each cycle
system.cpu0.iq.issued_per_cycle::stdev       0.786268                       # Number of insts issued each cycle
system.cpu0.iq.issued_per_cycle::underflows            0      0.00%      0.00% # Number of insts issued each cycle
system.cpu0.iq.issued_per_cycle::0           28155544     92.31%     92.31% # Number of insts issued each cycle
system.cpu0.iq.issued_per_cycle::1             919424      3.01%     95.32% # Number of insts issued each cycle
system.cpu0.iq.issued_per_cycle::2             495416      1.62%     96.95% # Number of insts issued each cycle
system.cpu0.iq.issued_per_cycle::3             331172      1.09%     98.03% # Number of insts issued each cycle
system.cpu0.iq.issued_per_cycle::4             369652      1.21%     99.24% # Number of insts issued each cycle
system.cpu0.iq.issued_per_cycle::5             101035      0.33%     99.57% # Number of insts issued each cycle
system.cpu0.iq.issued_per_cycle::6              81218      0.27%     99.84% # Number of insts issued each cycle
system.cpu0.iq.issued_per_cycle::7              27288      0.09%     99.93% # Number of insts issued each cycle
system.cpu0.iq.issued_per_cycle::8              21127      0.07%    100.00% # Number of insts issued each cycle
system.cpu0.iq.issued_per_cycle::overflows            0      0.00%    100.00% # Number of insts issued each cycle
system.cpu0.iq.issued_per_cycle::min_value            0                       # Number of insts issued each cycle
system.cpu0.iq.issued_per_cycle::max_value            8                       # Number of insts issued each cycle
system.cpu0.iq.issued_per_cycle::total       30501876                       # Number of insts issued each cycle
system.cpu0.iq.fu_full::No_OpClass                  0      0.00%      0.00% # attempts to use FU when none available
system.cpu0.iq.fu_full::IntAlu                  10149     67.29%     67.29% # attempts to use FU when none available
system.cpu0.iq.fu_full::IntMult                     0      0.00%     67.29% # attempts to use FU when none available
system.cpu0.iq.fu_full::IntDiv                      0      0.00%     67.29% # attempts to use FU when none available
system.cpu0.iq.fu_full::FloatAdd                 1028      6.82%     74.10% # attempts to use FU when none available
system.cpu0.iq.fu_full::FloatCmp                    0      0.00%     74.10% # attempts to use FU when none available
system.cpu0.iq.fu_full::FloatCvt                    0      0.00%     74.10% # attempts to use FU when none available
system.cpu0.iq.fu_full::FloatMult                   0      0.00%     74.10% # attempts to use FU when none available
system.cpu0.iq.fu_full::FloatMultAcc                0      0.00%     74.10% # attempts to use FU when none available
system.cpu0.iq.fu_full::FloatDiv                    0      0.00%     74.10% # attempts to use FU when none available
system.cpu0.iq.fu_full::FloatMisc                   0      0.00%     74.10% # attempts to use FU when none available
system.cpu0.iq.fu_full::FloatSqrt                   0      0.00%     74.10% # attempts to use FU when none available
system.cpu0.iq.fu_full::SimdAdd                     0      0.00%     74.10% # attempts to use FU when none available
system.cpu0.iq.fu_full::SimdAddAcc                  0      0.00%     74.10% # attempts to use FU when none available
system.cpu0.iq.fu_full::SimdAlu                     0      0.00%     74.10% # attempts to use FU when none available
system.cpu0.iq.fu_full::SimdCmp                     0      0.00%     74.10% # attempts to use FU when none available
system.cpu0.iq.fu_full::SimdCvt                     0      0.00%     74.10% # attempts to use FU when none available
system.cpu0.iq.fu_full::SimdMisc                    0      0.00%     74.10% # attempts to use FU when none available
system.cpu0.iq.fu_full::SimdMult                    0      0.00%     74.10% # attempts to use FU when none available
system.cpu0.iq.fu_full::SimdMultAcc                 0      0.00%     74.10% # attempts to use FU when none available
system.cpu0.iq.fu_full::SimdShift                   0      0.00%     74.10% # attempts to use FU when none available
system.cpu0.iq.fu_full::SimdShiftAcc                0      0.00%     74.10% # attempts to use FU when none available
system.cpu0.iq.fu_full::SimdSqrt                    0      0.00%     74.10% # attempts to use FU when none available
system.cpu0.iq.fu_full::SimdFloatAdd                0      0.00%     74.10% # attempts to use FU when none available
system.cpu0.iq.fu_full::SimdFloatAlu                0      0.00%     74.10% # attempts to use FU when none available
system.cpu0.iq.fu_full::SimdFloatCmp                0      0.00%     74.10% # attempts to use FU when none available
system.cpu0.iq.fu_full::SimdFloatCvt                0      0.00%     74.10% # attempts to use FU when none available
system.cpu0.iq.fu_full::SimdFloatDiv                0      0.00%     74.10% # attempts to use FU when none available
system.cpu0.iq.fu_full::SimdFloatMisc               0      0.00%     74.10% # attempts to use FU when none available
system.cpu0.iq.fu_full::SimdFloatMult               0      0.00%     74.10% # attempts to use FU when none available
system.cpu0.iq.fu_full::SimdFloatMultAcc            0      0.00%     74.10% # attempts to use FU when none available
system.cpu0.iq.fu_full::SimdFloatSqrt               0      0.00%     74.10% # attempts to use FU when none available
system.cpu0.iq.fu_full::MemRead                  3516     23.31%     97.41% # attempts to use FU when none available
system.cpu0.iq.fu_full::MemWrite                  259      1.72%     99.13% # attempts to use FU when none available
system.cpu0.iq.fu_full::FloatMemRead              118      0.78%     99.91% # attempts to use FU when none available
system.cpu0.iq.fu_full::FloatMemWrite              13      0.09%    100.00% # attempts to use FU when none available
system.cpu0.iq.fu_full::IprAccess                   0      0.00%    100.00% # attempts to use FU when none available
system.cpu0.iq.fu_full::InstPrefetch                0      0.00%    100.00% # attempts to use FU when none available
system.cpu0.iq.FU_type_0::No_OpClass            16904      0.29%      0.29% # Type of FU issued
system.cpu0.iq.FU_type_0::IntAlu              4739730     82.65%     82.94% # Type of FU issued
system.cpu0.iq.FU_type_0::IntMult                 675      0.01%     82.95% # Type of FU issued
system.cpu0.iq.FU_type_0::IntDiv                 8858      0.15%     83.11% # Type of FU issued
system.cpu0.iq.FU_type_0::FloatAdd              12865      0.22%     83.33% # Type of FU issued
system.cpu0.iq.FU_type_0::FloatCmp                  0      0.00%     83.33% # Type of FU issued
system.cpu0.iq.FU_type_0::FloatCvt                  0      0.00%     83.33% # Type of FU issued
system.cpu0.iq.FU_type_0::FloatMult                 0      0.00%     83.33% # Type of FU issued
system.cpu0.iq.FU_type_0::FloatMultAcc              0      0.00%     83.33% # Type of FU issued
system.cpu0.iq.FU_type_0::FloatDiv                  0      0.00%     83.33% # Type of FU issued
system.cpu0.iq.FU_type_0::FloatMisc                 0      0.00%     83.33% # Type of FU issued
system.cpu0.iq.FU_type_0::FloatSqrt                 0      0.00%     83.33% # Type of FU issued
system.cpu0.iq.FU_type_0::SimdAdd                   0      0.00%     83.33% # Type of FU issued
system.cpu0.iq.FU_type_0::SimdAddAcc                0      0.00%     83.33% # Type of FU issued
system.cpu0.iq.FU_type_0::SimdAlu                   0      0.00%     83.33% # Type of FU issued
system.cpu0.iq.FU_type_0::SimdCmp                   0      0.00%     83.33% # Type of FU issued
system.cpu0.iq.FU_type_0::SimdCvt                   0      0.00%     83.33% # Type of FU issued
system.cpu0.iq.FU_type_0::SimdMisc                  0      0.00%     83.33% # Type of FU issued
system.cpu0.iq.FU_type_0::SimdMult                  0      0.00%     83.33% # Type of FU issued
system.cpu0.iq.FU_type_0::SimdMultAcc               0      0.00%     83.33% # Type of FU issued
system.cpu0.iq.FU_type_0::SimdShift                 0      0.00%     83.33% # Type of FU issued
system.cpu0.iq.FU_type_0::SimdShiftAcc              0      0.00%     83.33% # Type of FU issued
system.cpu0.iq.FU_type_0::SimdSqrt                  0      0.00%     83.33% # Type of FU issued
system.cpu0.iq.FU_type_0::SimdFloatAdd              0      0.00%     83.33% # Type of FU issued
system.cpu0.iq.FU_type_0::SimdFloatAlu              0      0.00%     83.33% # Type of FU issued
system.cpu0.iq.FU_type_0::SimdFloatCmp              0      0.00%     83.33% # Type of FU issued
system.cpu0.iq.FU_type_0::SimdFloatCvt              0      0.00%     83.33% # Type of FU issued
system.cpu0.iq.FU_type_0::SimdFloatDiv              0      0.00%     83.33% # Type of FU issued
system.cpu0.iq.FU_type_0::SimdFloatMisc             0      0.00%     83.33% # Type of FU issued
system.cpu0.iq.FU_type_0::SimdFloatMult             0      0.00%     83.33% # Type of FU issued
system.cpu0.iq.FU_type_0::SimdFloatMultAcc            0      0.00%     83.33% # Type of FU issued
system.cpu0.iq.FU_type_0::SimdFloatSqrt             0      0.00%     83.33% # Type of FU issued
system.cpu0.iq.FU_type_0::MemRead              904936     15.78%     99.11% # Type of FU issued
system.cpu0.iq.FU_type_0::MemWrite              48472      0.85%     99.96% # Type of FU issued
system.cpu0.iq.FU_type_0::FloatMemRead           2410      0.04%    100.00% # Type of FU issued
system.cpu0.iq.FU_type_0::FloatMemWrite            45      0.00%    100.00% # Type of FU issued
system.cpu0.iq.FU_type_0::IprAccess                 0      0.00%    100.00% # Type of FU issued
system.cpu0.iq.FU_type_0::InstPrefetch              0      0.00%    100.00% # Type of FU issued
system.cpu0.iq.FU_type_0::total               5734895                       # Type of FU issued
system.cpu0.iq.rate                          0.187816                       # Inst issue rate
system.cpu0.iq.fu_busy_cnt                      15083                       # FU busy when requested
system.cpu0.iq.fu_busy_rate                  0.002630                       # FU busy rate (busy events/executed inst)
system.cpu0.iq.int_inst_queue_reads          41960749                       # Number of integer instruction queue reads
system.cpu0.iq.int_inst_queue_writes         13321113                       # Number of integer instruction queue writes
system.cpu0.iq.int_inst_queue_wakeup_accesses      5501986                       # Number of integer instruction queue wakeup accesses
system.cpu0.iq.fp_inst_queue_reads              31987                       # Number of floating instruction queue reads
system.cpu0.iq.fp_inst_queue_writes             29596                       # Number of floating instruction queue writes
system.cpu0.iq.fp_inst_queue_wakeup_accesses        13937                       # Number of floating instruction queue wakeup accesses
system.cpu0.iq.vec_inst_queue_reads                 0                       # Number of vector instruction queue reads
system.cpu0.iq.vec_inst_queue_writes                0                       # Number of vector instruction queue writes
system.cpu0.iq.vec_inst_queue_wakeup_accesses            0                       # Number of vector instruction queue wakeup accesses
system.cpu0.iq.int_alu_accesses               5716584                       # Number of integer alu accesses
system.cpu0.iq.fp_alu_accesses                  16490                       # Number of floating point alu accesses
system.cpu0.iq.vec_alu_accesses                     0                       # Number of vector alu accesses
system.cpu0.iew.lsq.thread0.forwLoads            4100                       # Number of loads that had data forwarded from stores
system.cpu0.iew.lsq.thread0.invAddrLoads            0                       # Number of loads ignored due to an invalid address
system.cpu0.iew.lsq.thread0.squashedLoads      1011819                       # Number of loads squashed
system.cpu0.iew.lsq.thread0.ignoredResponses          174                       # Number of memory responses ignored because the instruction is squashed
system.cpu0.iew.lsq.thread0.memOrderViolation            3                       # Number of memory ordering violations
system.cpu0.iew.lsq.thread0.squashedStores        40549                       # Number of stores squashed
system.cpu0.iew.lsq.thread0.invAddrSwpfs            0                       # Number of software prefetches ignored due to an invalid address
system.cpu0.iew.lsq.thread0.blockedLoads            0                       # Number of blocked loads due to partial load-store forwarding
system.cpu0.iew.lsq.thread0.rescheduledLoads           33                       # Number of loads that were rescheduled
system.cpu0.iew.lsq.thread0.cacheBlocked         2014                       # Number of times an access to memory failed due to the cache being blocked
system.cpu0.iew.iewIdleCycles                       0                       # Number of cycles IEW is idle
system.cpu0.iew.iewSquashCycles                 77241                       # Number of cycles IEW is squashing
system.cpu0.iew.iewBlockCycles               25010616                       # Number of cycles IEW is blocking
system.cpu0.iew.iewUnblockCycles               276017                       # Number of cycles IEW is unblocking
system.cpu0.iew.iewDispatchedInsts            8155094                       # Number of instructions dispatched to IQ
system.cpu0.iew.iewDispSquashedInsts             4533                       # Number of squashed instructions skipped by dispatch
system.cpu0.iew.iewDispLoadInsts              1580353                       # Number of dispatched load instructions
system.cpu0.iew.iewDispStoreInsts               65820                       # Number of dispatched store instructions
system.cpu0.iew.iewDispNonSpecInsts              1416                       # Number of dispatched non-speculative instructions
system.cpu0.iew.iewIQFullEvents                 20945                       # Number of times the IQ has become full, causing a stall
system.cpu0.iew.iewLSQFullEvents                48224                       # Number of times the LSQ has become full, causing a stall
system.cpu0.iew.memOrderViolationEvents             3                       # Number of memory order violations
system.cpu0.iew.predictedTakenIncorrect         41343                       # Number of branches that were predicted taken incorrectly
system.cpu0.iew.predictedNotTakenIncorrect        42971                       # Number of branches that were predicted not taken incorrectly
system.cpu0.iew.branchMispredicts               84314                       # Number of branch mispredicts detected at execute
system.cpu0.iew.iewExecutedInsts              5633744                       # Number of executed instructions
system.cpu0.iew.iewExecLoadInsts               865054                       # Number of load instructions executed
system.cpu0.iew.iewExecSquashedInsts           101151                       # Number of squashed instructions skipped in execute
system.cpu0.iew.exec_swp                            0                       # number of swp insts executed
system.cpu0.iew.exec_nop                            0                       # number of nop insts executed
system.cpu0.iew.exec_refs                      910077                       # number of memory reference insts executed
system.cpu0.iew.exec_branches                  670326                       # Number of branches executed
system.cpu0.iew.exec_stores                     45023                       # Number of stores executed
system.cpu0.iew.exec_rate                    0.184503                       # Inst execution rate
system.cpu0.iew.wb_sent                       5532532                       # cumulative count of insts sent to commit
system.cpu0.iew.wb_count                      5515923                       # cumulative count of insts written-back
system.cpu0.iew.wb_producers                  4128601                       # num instructions producing a value
system.cpu0.iew.wb_consumers                  6437092                       # num instructions consuming a value
system.cpu0.iew.wb_rate                      0.180644                       # insts written-back per cycle
system.cpu0.iew.wb_fanout                    0.641377                       # average fanout of values written-back
system.cpu0.commit.commitSquashedInsts        5196207                       # The number of squashed insts skipped by commit
system.cpu0.commit.branchMispredicts            77239                       # The number of times a branch was mispredicted
system.cpu0.commit.committed_per_cycle::samples     29774385                       # Number of insts commited each cycle
system.cpu0.commit.committed_per_cycle::mean     0.099397                       # Number of insts commited each cycle
system.cpu0.commit.committed_per_cycle::stdev     0.581496                       # Number of insts commited each cycle
system.cpu0.commit.committed_per_cycle::underflows            0      0.00%      0.00% # Number of insts commited each cycle
system.cpu0.commit.committed_per_cycle::0     28492626     95.70%     95.70% # Number of insts commited each cycle
system.cpu0.commit.committed_per_cycle::1       595594      2.00%     97.70% # Number of insts commited each cycle
system.cpu0.commit.committed_per_cycle::2       134967      0.45%     98.15% # Number of insts commited each cycle
system.cpu0.commit.committed_per_cycle::3       378595      1.27%     99.42% # Number of insts commited each cycle
system.cpu0.commit.committed_per_cycle::4        71959      0.24%     99.66% # Number of insts commited each cycle
system.cpu0.commit.committed_per_cycle::5        39404      0.13%     99.79% # Number of insts commited each cycle
system.cpu0.commit.committed_per_cycle::6         6258      0.02%     99.82% # Number of insts commited each cycle
system.cpu0.commit.committed_per_cycle::7         4092      0.01%     99.83% # Number of insts commited each cycle
system.cpu0.commit.committed_per_cycle::8        50890      0.17%    100.00% # Number of insts commited each cycle
system.cpu0.commit.committed_per_cycle::overflows            0      0.00%    100.00% # Number of insts commited each cycle
system.cpu0.commit.committed_per_cycle::min_value            0                       # Number of insts commited each cycle
system.cpu0.commit.committed_per_cycle::max_value            8                       # Number of insts commited each cycle
system.cpu0.commit.committed_per_cycle::total     29774385                       # Number of insts commited each cycle
system.cpu0.commit.committedInsts             1480769                       # Number of instructions committed
system.cpu0.commit.committedOps               2959481                       # Number of ops (including micro ops) committed
system.cpu0.commit.swp_count                        0                       # Number of s/w prefetches committed
system.cpu0.commit.refs                        593805                       # Number of memory references committed
system.cpu0.commit.loads                       568534                       # Number of loads committed
system.cpu0.commit.membars                          0                       # Number of memory barriers committed
system.cpu0.commit.branches                    539550                       # Number of branches committed
system.cpu0.commit.vec_insts                        0                       # Number of committed Vector instructions.
system.cpu0.commit.fp_insts                     10130                       # Number of committed floating point instructions.
system.cpu0.commit.int_insts                  2949269                       # Number of committed integer instructions.
system.cpu0.commit.function_calls                4450                       # Number of function calls committed.
system.cpu0.commit.op_class_0::No_OpClass         3038      0.10%      0.10% # Class of committed instruction
system.cpu0.commit.op_class_0::IntAlu         2346462     79.29%     79.39% # Class of committed instruction
system.cpu0.commit.op_class_0::IntMult            178      0.01%     79.39% # Class of committed instruction
system.cpu0.commit.op_class_0::IntDiv            7346      0.25%     79.64% # Class of committed instruction
system.cpu0.commit.op_class_0::FloatAdd          8652      0.29%     79.94% # Class of committed instruction
system.cpu0.commit.op_class_0::FloatCmp             0      0.00%     79.94% # Class of committed instruction
system.cpu0.commit.op_class_0::FloatCvt             0      0.00%     79.94% # Class of committed instruction
system.cpu0.commit.op_class_0::FloatMult            0      0.00%     79.94% # Class of committed instruction
system.cpu0.commit.op_class_0::FloatMultAcc            0      0.00%     79.94% # Class of committed instruction
system.cpu0.commit.op_class_0::FloatDiv             0      0.00%     79.94% # Class of committed instruction
system.cpu0.commit.op_class_0::FloatMisc            0      0.00%     79.94% # Class of committed instruction
system.cpu0.commit.op_class_0::FloatSqrt            0      0.00%     79.94% # Class of committed instruction
system.cpu0.commit.op_class_0::SimdAdd              0      0.00%     79.94% # Class of committed instruction
system.cpu0.commit.op_class_0::SimdAddAcc            0      0.00%     79.94% # Class of committed instruction
system.cpu0.commit.op_class_0::SimdAlu              0      0.00%     79.94% # Class of committed instruction
system.cpu0.commit.op_class_0::SimdCmp              0      0.00%     79.94% # Class of committed instruction
system.cpu0.commit.op_class_0::SimdCvt              0      0.00%     79.94% # Class of committed instruction
system.cpu0.commit.op_class_0::SimdMisc             0      0.00%     79.94% # Class of committed instruction
system.cpu0.commit.op_class_0::SimdMult             0      0.00%     79.94% # Class of committed instruction
system.cpu0.commit.op_class_0::SimdMultAcc            0      0.00%     79.94% # Class of committed instruction
system.cpu0.commit.op_class_0::SimdShift            0      0.00%     79.94% # Class of committed instruction
system.cpu0.commit.op_class_0::SimdShiftAcc            0      0.00%     79.94% # Class of committed instruction
system.cpu0.commit.op_class_0::SimdSqrt             0      0.00%     79.94% # Class of committed instruction
system.cpu0.commit.op_class_0::SimdFloatAdd            0      0.00%     79.94% # Class of committed instruction
system.cpu0.commit.op_class_0::SimdFloatAlu            0      0.00%     79.94% # Class of committed instruction
system.cpu0.commit.op_class_0::SimdFloatCmp            0      0.00%     79.94% # Class of committed instruction
system.cpu0.commit.op_class_0::SimdFloatCvt            0      0.00%     79.94% # Class of committed instruction
system.cpu0.commit.op_class_0::SimdFloatDiv            0      0.00%     79.94% # Class of committed instruction
system.cpu0.commit.op_class_0::SimdFloatMisc            0      0.00%     79.94% # Class of committed instruction
system.cpu0.commit.op_class_0::SimdFloatMult            0      0.00%     79.94% # Class of committed instruction
system.cpu0.commit.op_class_0::SimdFloatMultAcc            0      0.00%     79.94% # Class of committed instruction
system.cpu0.commit.op_class_0::SimdFloatSqrt            0      0.00%     79.94% # Class of committed instruction
system.cpu0.commit.op_class_0::MemRead         567056     19.16%     99.10% # Class of committed instruction
system.cpu0.commit.op_class_0::MemWrite         25271      0.85%     99.95% # Class of committed instruction
system.cpu0.commit.op_class_0::FloatMemRead         1478      0.05%    100.00% # Class of committed instruction
system.cpu0.commit.op_class_0::FloatMemWrite            0      0.00%    100.00% # Class of committed instruction
system.cpu0.commit.op_class_0::IprAccess            0      0.00%    100.00% # Class of committed instruction
system.cpu0.commit.op_class_0::InstPrefetch            0      0.00%    100.00% # Class of committed instruction
system.cpu0.commit.op_class_0::total          2959481                       # Class of committed instruction
system.cpu0.commit.bw_lim_events                50890                       # number cycles where commit BW limit reached
system.cpu0.rob.rob_reads                    37879183                       # The number of ROB reads
system.cpu0.rob.rob_writes                   17040511                       # The number of ROB writes
system.cpu0.timesIdled                            299                       # Number of times that the entire CPU went into an idle state and unscheduled itself
system.cpu0.idleCycles                          32812                       # Total number of cycles that the CPU has spent unscheduled due to idling
system.cpu0.committedInsts                    1480769                       # Number of Instructions Simulated
system.cpu0.committedOps                      2959481                       # Number of Ops (including micro ops) Simulated
system.cpu0.cpi                             20.620831                       # CPI: Cycles Per Instruction
system.cpu0.cpi_total                       20.620831                       # CPI: Total CPI of All Threads
system.cpu0.ipc                              0.048495                       # IPC: Instructions Per Cycle
system.cpu0.ipc_total                        0.048495                       # IPC: Total IPC of All Threads
system.cpu0.int_regfile_reads                 5440006                       # number of integer regfile reads
system.cpu0.int_regfile_writes                4805883                       # number of integer regfile writes
system.cpu0.fp_regfile_reads                    24826                       # number of floating regfile reads
system.cpu0.fp_regfile_writes                   12401                       # number of floating regfile writes
system.cpu0.cc_regfile_reads                  3544670                       # number of cc regfile reads
system.cpu0.cc_regfile_writes                 1488453                       # number of cc regfile writes
system.cpu0.misc_regfile_reads                3009632                       # number of misc regfile reads
system.cpu0.dcache.tags.pwrStateResidencyTicks::UNDEFINED  15267344125                       # Cumulative time (in ticks) in various power states
system.cpu0.dcache.tags.replacements           299068                       # number of replacements
system.cpu0.dcache.tags.tagsinuse                1024                       # Cycle average of tags in use
system.cpu0.dcache.tags.total_refs             359423                       # Total number of references to valid blocks.
system.cpu0.dcache.tags.sampled_refs           299068                       # Sample count of references to valid blocks.
system.cpu0.dcache.tags.avg_refs             1.201810                       # Average number of references to valid blocks.
system.cpu0.dcache.tags.warmup_cycle                0                       # Cycle when the warmup percentage was hit.
system.cpu0.dcache.tags.occ_blocks::cpu0.data         1024                       # Average occupied blocks per requestor
system.cpu0.dcache.tags.occ_percent::cpu0.data            1                       # Average percentage of cache occupancy
system.cpu0.dcache.tags.occ_percent::total            1                       # Average percentage of cache occupancy
system.cpu0.dcache.tags.occ_task_id_blocks::1024         1024                       # Occupied blocks per task id
system.cpu0.dcache.tags.age_task_id_blocks_1024::0          740                       # Occupied blocks per task id
system.cpu0.dcache.tags.age_task_id_blocks_1024::1          264                       # Occupied blocks per task id
system.cpu0.dcache.tags.age_task_id_blocks_1024::2           20                       # Occupied blocks per task id
system.cpu0.dcache.tags.occ_task_id_percent::1024            1                       # Percentage of cache occupancy per task id
system.cpu0.dcache.tags.tag_accesses          3824520                       # Number of tag accesses
system.cpu0.dcache.tags.data_accesses         3824520                       # Number of data accesses
system.cpu0.dcache.pwrStateResidencyTicks::UNDEFINED  15267344125                       # Cumulative time (in ticks) in various power states
system.cpu0.dcache.ReadReq_hits::cpu0.data       330506                       # number of ReadReq hits
system.cpu0.dcache.ReadReq_hits::total         330506                       # number of ReadReq hits
system.cpu0.dcache.WriteReq_hits::cpu0.data        24237                       # number of WriteReq hits
system.cpu0.dcache.WriteReq_hits::total         24237                       # number of WriteReq hits
system.cpu0.dcache.demand_hits::cpu0.data       354743                       # number of demand (read+write) hits
system.cpu0.dcache.demand_hits::total          354743                       # number of demand (read+write) hits
system.cpu0.dcache.overall_hits::cpu0.data       354743                       # number of overall hits
system.cpu0.dcache.overall_hits::total         354743                       # number of overall hits
system.cpu0.dcache.ReadReq_misses::cpu0.data       525586                       # number of ReadReq misses
system.cpu0.dcache.ReadReq_misses::total       525586                       # number of ReadReq misses
system.cpu0.dcache.WriteReq_misses::cpu0.data         1034                       # number of WriteReq misses
system.cpu0.dcache.WriteReq_misses::total         1034                       # number of WriteReq misses
system.cpu0.dcache.demand_misses::cpu0.data       526620                       # number of demand (read+write) misses
system.cpu0.dcache.demand_misses::total        526620                       # number of demand (read+write) misses
system.cpu0.dcache.overall_misses::cpu0.data       526620                       # number of overall misses
system.cpu0.dcache.overall_misses::total       526620                       # number of overall misses
system.cpu0.dcache.ReadReq_miss_latency::cpu0.data  34772174000                       # number of ReadReq miss cycles
system.cpu0.dcache.ReadReq_miss_latency::total  34772174000                       # number of ReadReq miss cycles
system.cpu0.dcache.WriteReq_miss_latency::cpu0.data     36236999                       # number of WriteReq miss cycles
system.cpu0.dcache.WriteReq_miss_latency::total     36236999                       # number of WriteReq miss cycles
system.cpu0.dcache.demand_miss_latency::cpu0.data  34808410999                       # number of demand (read+write) miss cycles
system.cpu0.dcache.demand_miss_latency::total  34808410999                       # number of demand (read+write) miss cycles
system.cpu0.dcache.overall_miss_latency::cpu0.data  34808410999                       # number of overall miss cycles
system.cpu0.dcache.overall_miss_latency::total  34808410999                       # number of overall miss cycles
system.cpu0.dcache.ReadReq_accesses::cpu0.data       856092                       # number of ReadReq accesses(hits+misses)
system.cpu0.dcache.ReadReq_accesses::total       856092                       # number of ReadReq accesses(hits+misses)
system.cpu0.dcache.WriteReq_accesses::cpu0.data        25271                       # number of WriteReq accesses(hits+misses)
system.cpu0.dcache.WriteReq_accesses::total        25271                       # number of WriteReq accesses(hits+misses)
system.cpu0.dcache.demand_accesses::cpu0.data       881363                       # number of demand (read+write) accesses
system.cpu0.dcache.demand_accesses::total       881363                       # number of demand (read+write) accesses
system.cpu0.dcache.overall_accesses::cpu0.data       881363                       # number of overall (read+write) accesses
system.cpu0.dcache.overall_accesses::total       881363                       # number of overall (read+write) accesses
system.cpu0.dcache.ReadReq_miss_rate::cpu0.data     0.613936                       # miss rate for ReadReq accesses
system.cpu0.dcache.ReadReq_miss_rate::total     0.613936                       # miss rate for ReadReq accesses
system.cpu0.dcache.WriteReq_miss_rate::cpu0.data     0.040916                       # miss rate for WriteReq accesses
system.cpu0.dcache.WriteReq_miss_rate::total     0.040916                       # miss rate for WriteReq accesses
system.cpu0.dcache.demand_miss_rate::cpu0.data     0.597506                       # miss rate for demand accesses
system.cpu0.dcache.demand_miss_rate::total     0.597506                       # miss rate for demand accesses
system.cpu0.dcache.overall_miss_rate::cpu0.data     0.597506                       # miss rate for overall accesses
system.cpu0.dcache.overall_miss_rate::total     0.597506                       # miss rate for overall accesses
system.cpu0.dcache.ReadReq_avg_miss_latency::cpu0.data 66158.866484                       # average ReadReq miss latency
system.cpu0.dcache.ReadReq_avg_miss_latency::total 66158.866484                       # average ReadReq miss latency
system.cpu0.dcache.WriteReq_avg_miss_latency::cpu0.data 35045.453578                       # average WriteReq miss latency
system.cpu0.dcache.WriteReq_avg_miss_latency::total 35045.453578                       # average WriteReq miss latency
system.cpu0.dcache.demand_avg_miss_latency::cpu0.data 66097.776383                       # average overall miss latency
system.cpu0.dcache.demand_avg_miss_latency::total 66097.776383                       # average overall miss latency
system.cpu0.dcache.overall_avg_miss_latency::cpu0.data 66097.776383                       # average overall miss latency
[...]
system.l2.ReadSharedReq_hits::cpu0.data        112250                       # number of ReadSharedReq hits
system.l2.ReadSharedReq_hits::total            112250                       # number of ReadSharedReq hits
system.l2.demand_hits::cpu0.data               113035                       # number of demand (read+write) hits
system.l2.demand_hits::total                   113035                       # number of demand (read+write) hits
system.l2.overall_hits::cpu0.data              113035                       # number of overall hits
system.l2.overall_hits::total                  113035                       # number of overall hits
system.l2.ReadExReq_misses::cpu0.data             241                       # number of ReadExReq misses
system.l2.ReadExReq_misses::total                 241                       # number of ReadExReq misses
system.l2.ReadSharedReq_misses::cpu0.data       185792                       # number of ReadSharedReq misses
system.l2.ReadSharedReq_misses::total          185792                       # number of ReadSharedReq misses
system.l2.demand_misses::cpu0.data             186033                       # number of demand (read+write) misses
system.l2.demand_misses::total                 186033                       # number of demand (read+write) misses
system.l2.overall_misses::cpu0.data            186033                       # number of overall misses
system.l2.overall_misses::total                186033                       # number of overall misses
system.l2.ReadExReq_miss_latency::cpu0.data     24625500                       # number of ReadExReq miss cycles
system.l2.ReadExReq_miss_latency::total      24625500                       # number of ReadExReq miss cycles
system.l2.ReadSharedReq_miss_latency::cpu0.data  17620514000                       # number of ReadSharedReq miss cycles
system.l2.ReadSharedReq_miss_latency::total  17620514000                       # number of ReadSharedReq miss cycles
system.l2.demand_miss_latency::cpu0.data  17645139500                       # number of demand (read+write) miss cycles
system.l2.demand_miss_latency::total      17645139500                       # number of demand (read+write) miss cycles
system.l2.overall_miss_latency::cpu0.data  17645139500                       # number of overall miss cycles
system.l2.overall_miss_latency::total     17645139500                       # number of overall miss cycles
system.l2.WritebackDirty_accesses::writebacks         2847                       # number of WritebackDirty accesses(hits+misses)
system.l2.WritebackDirty_accesses::total         2847                       # number of WritebackDirty accesses(hits+misses)
system.l2.ReadExReq_accesses::cpu0.data          1026                       # number of ReadExReq accesses(hits+misses)
system.l2.ReadExReq_accesses::total              1026                       # number of ReadExReq accesses(hits+misses)
system.l2.ReadSharedReq_accesses::cpu0.data       298042                       # number of ReadSharedReq accesses(hits+misses)
system.l2.ReadSharedReq_accesses::total        298042                       # number of ReadSharedReq accesses(hits+misses)
system.l2.demand_accesses::cpu0.data           299068                       # number of demand (read+write) accesses
system.l2.demand_accesses::total               299068                       # number of demand (read+write) accesses
system.l2.overall_accesses::cpu0.data          299068                       # number of overall (read+write) accesses
system.l2.overall_accesses::total              299068                       # number of overall (read+write) accesses
system.l2.ReadExReq_miss_rate::cpu0.data     0.234893                       # miss rate for ReadExReq accesses
system.l2.ReadExReq_miss_rate::total         0.234893                       # miss rate for ReadExReq accesses
system.l2.ReadSharedReq_miss_rate::cpu0.data     0.623375                       # miss rate for ReadSharedReq accesses
system.l2.ReadSharedReq_miss_rate::total     0.623375                       # miss rate for ReadSharedReq accesses
system.l2.demand_miss_rate::cpu0.data        0.622042                       # miss rate for demand accesses
system.l2.demand_miss_rate::total            0.622042                       # miss rate for demand accesses
system.l2.overall_miss_rate::cpu0.data       0.622042                       # miss rate for overall accesses
system.l2.overall_miss_rate::total           0.622042                       # miss rate for overall accesses
system.l2.ReadExReq_avg_miss_latency::cpu0.data 102180.497925                       # average ReadExReq miss latency
system.l2.ReadExReq_avg_miss_latency::total 102180.497925                       # average ReadExReq miss latency
system.l2.ReadSharedReq_avg_miss_latency::cpu0.data 94840.003875                       # average ReadSharedReq miss latency
system.l2.ReadSharedReq_avg_miss_latency::total 94840.003875                       # average ReadSharedReq miss latency
system.l2.demand_avg_miss_latency::cpu0.data 94849.513258                       # average overall miss latency
system.l2.demand_avg_miss_latency::total 94849.513258                       # average overall miss latency
system.l2.overall_avg_miss_latency::cpu0.data 94849.513258                       # average overall miss latency
system.l2.overall_avg_miss_latency::total 94849.513258                       # average overall miss latency
system.l2.blocked_cycles::no_mshrs                  0                       # number of cycles access was blocked
system.l2.blocked_cycles::no_targets                0                       # number of cycles access was blocked
system.l2.blocked::no_mshrs                         0                       # number of cycles access was blocked
system.l2.blocked::no_targets                       0                       # number of cycles access was blocked
system.l2.avg_blocked_cycles::no_mshrs            nan                       # average number of cycles each access was blocked
system.l2.avg_blocked_cycles::no_targets          nan                       # average number of cycles each access was blocked
system.l2.writebacks::writebacks                  337                       # number of writebacks
system.l2.writebacks::total                       337                       # number of writebacks
system.l2.ReadExReq_mshr_misses::cpu0.data          241                       # number of ReadExReq MSHR misses
system.l2.ReadExReq_mshr_misses::total            241                       # number of ReadExReq MSHR misses
system.l2.ReadSharedReq_mshr_misses::cpu0.data       185792                       # number of ReadSharedReq MSHR misses
system.l2.ReadSharedReq_mshr_misses::total       185792                       # number of ReadSharedReq MSHR misses
system.l2.demand_mshr_misses::cpu0.data        186033                       # number of demand (read+write) MSHR misses
system.l2.demand_mshr_misses::total            186033                       # number of demand (read+write) MSHR misses
system.l2.overall_mshr_misses::cpu0.data       186033                       # number of overall MSHR misses
system.l2.overall_mshr_misses::total           186033                       # number of overall MSHR misses
system.l2.ReadExReq_mshr_miss_latency::cpu0.data     22215500                       # number of ReadExReq MSHR miss cycles
system.l2.ReadExReq_mshr_miss_latency::total     22215500                       # number of ReadExReq MSHR miss cycles
system.l2.ReadSharedReq_mshr_miss_latency::cpu0.data  15762584000                       # number of ReadSharedReq MSHR miss cycles
system.l2.ReadSharedReq_mshr_miss_latency::total  15762584000                       # number of ReadSharedReq MSHR miss cycles
system.l2.demand_mshr_miss_latency::cpu0.data  15784799500                       # number of demand (read+write) MSHR miss cycles
system.l2.demand_mshr_miss_latency::total  15784799500                       # number of demand (read+write) MSHR miss cycles
system.l2.overall_mshr_miss_latency::cpu0.data  15784799500                       # number of overall MSHR miss cycles
system.l2.overall_mshr_miss_latency::total  15784799500                       # number of overall MSHR miss cycles
system.l2.ReadExReq_mshr_miss_rate::cpu0.data     0.234893                       # mshr miss rate for ReadExReq accesses
system.l2.ReadExReq_mshr_miss_rate::total     0.234893                       # mshr miss rate for ReadExReq accesses
system.l2.ReadSharedReq_mshr_miss_rate::cpu0.data     0.623375                       # mshr miss rate for ReadSharedReq accesses
system.l2.ReadSharedReq_mshr_miss_rate::total     0.623375                       # mshr miss rate for ReadSharedReq accesses
system.l2.demand_mshr_miss_rate::cpu0.data     0.622042                       # mshr miss rate for demand accesses
system.l2.demand_mshr_miss_rate::total       0.622042                       # mshr miss rate for demand accesses
system.l2.overall_mshr_miss_rate::cpu0.data     0.622042                       # mshr miss rate for overall accesses
system.l2.overall_mshr_miss_rate::total      0.622042                       # mshr miss rate for overall accesses
system.l2.ReadExReq_avg_mshr_miss_latency::cpu0.data 92180.497925                       # average ReadExReq mshr miss latency
system.l2.ReadExReq_avg_mshr_miss_latency::total 92180.497925                       # average ReadExReq mshr miss latency
system.l2.ReadSharedReq_avg_mshr_miss_latency::cpu0.data 84839.950052                       # average ReadSharedReq mshr miss latency
system.l2.ReadSharedReq_avg_mshr_miss_latency::total 84839.950052                       # average ReadSharedReq mshr miss latency
system.l2.demand_avg_mshr_miss_latency::cpu0.data 84849.459504                       # average overall mshr miss latency
system.l2.demand_avg_mshr_miss_latency::total 84849.459504                       # average overall mshr miss latency
system.l2.overall_avg_mshr_miss_latency::cpu0.data 84849.459504                       # average overall mshr miss latency
system.l2.overall_avg_mshr_miss_latency::total 84849.459504                       # average overall mshr miss latency
system.membus.snoop_filter.tot_requests        372065                       # Total number of requests made to the snoop filter.
system.membus.snoop_filter.hit_single_requests       186034                       # Number of requests hitting in the snoop filter with a single holder of the requested data.
system.membus.snoop_filter.hit_multi_requests            0                       # Number of requests hitting in the snoop filter with multiple (>1) holders of the requested data.
system.membus.snoop_filter.tot_snoops               0                       # Total number of snoops made to the snoop filter.
system.membus.snoop_filter.hit_single_snoops            0                       # Number of snoops hitting in the snoop filter with a single holder of the requested data.
system.membus.snoop_filter.hit_multi_snoops            0                       # Number of snoops hitting in the snoop filter with multiple (>1) holders of the requested data.
system.membus.pwrStateResidencyTicks::UNDEFINED  15267344125                       # Cumulative time (in ticks) in various power states
system.membus.trans_dist::ReadResp             185793                       # Transaction distribution
system.membus.trans_dist::WritebackDirty          337                       # Transaction distribution
system.membus.trans_dist::CleanEvict           185695                       # Transaction distribution
system.membus.trans_dist::ReadExReq               241                       # Transaction distribution
system.membus.trans_dist::ReadExResp              241                       # Transaction distribution
system.membus.trans_dist::ReadSharedReq        185792                       # Transaction distribution
system.membus.pkt_count_system.l2.mem_side::system.mem_ctrls.port       558099                       # Packet count per connected master and slave (bytes)
system.membus.pkt_count_system.l2.mem_side::total       558099                       # Packet count per connected master and slave (bytes)
system.membus.pkt_count::total                 558099                       # Packet count per connected master and slave (bytes)
system.membus.pkt_size_system.l2.mem_side::system.mem_ctrls.port     11927744                       # Cumulative packet size per connected master and slave (bytes)
system.membus.pkt_size_system.l2.mem_side::total     11927744                       # Cumulative packet size per connected master and slave (bytes)
system.membus.pkt_size::total                11927744                       # Cumulative packet size per connected master and slave (bytes)
system.membus.snoops                                0                       # Total snoops (count)
system.membus.snoopTraffic                          0                       # Total snoop traffic (bytes)
system.membus.snoop_fanout::samples            186033                       # Request fanout histogram
system.membus.snoop_fanout::mean                    0                       # Request fanout histogram
system.membus.snoop_fanout::stdev                   0                       # Request fanout histogram
system.membus.snoop_fanout::underflows              0      0.00%      0.00% # Request fanout histogram
system.membus.snoop_fanout::0                  186033    100.00%    100.00% # Request fanout histogram
system.membus.snoop_fanout::1                       0      0.00%    100.00% # Request fanout histogram
system.membus.snoop_fanout::overflows               0      0.00%    100.00% # Request fanout histogram
system.membus.snoop_fanout::min_value               0                       # Request fanout histogram
system.membus.snoop_fanout::max_value               0                       # Request fanout histogram
system.membus.snoop_fanout::total              186033                       # Request fanout histogram
system.membus.reqLayer8.occupancy           436782000                       # Layer occupancy (ticks)
system.membus.reqLayer8.utilization               2.9                       # Layer utilization (%)
system.membus.respLayer1.occupancy         1007494250                       # Layer occupancy (ticks)
system.membus.respLayer1.utilization              6.6                       # Layer utilization (%)
system.tol2bus.snoop_filter.tot_requests       598136                       # Total number of requests made to the snoop filter.
system.tol2bus.snoop_filter.hit_single_requests       299066                       # Number of requests hitting in the snoop filter with a single holder of the requested data.
system.tol2bus.snoop_filter.hit_multi_requests          383                       # Number of requests hitting in the snoop filter with multiple (>1) holders of the requested data.
system.tol2bus.snoop_filter.tot_snoops              2                       # Total number of snoops made to the snoop filter.
system.tol2bus.snoop_filter.hit_single_snoops            2                       # Number of snoops hitting in the snoop filter with a single holder of the requested data.
system.tol2bus.snoop_filter.hit_multi_snoops            0                       # Number of snoops hitting in the snoop filter with multiple (>1) holders of the requested data.
system.tol2bus.pwrStateResidencyTicks::UNDEFINED  15267344125                       # Cumulative time (in ticks) in various power states
system.tol2bus.trans_dist::ReadResp            298042                       # Transaction distribution
system.tol2bus.trans_dist::WritebackDirty         3184                       # Transaction distribution
system.tol2bus.trans_dist::CleanEvict          481918                       # Transaction distribution
system.tol2bus.trans_dist::ReadExReq             1026                       # Transaction distribution
system.tol2bus.trans_dist::ReadExResp            1026                       # Transaction distribution
system.tol2bus.trans_dist::ReadSharedReq       298042                       # Transaction distribution
system.tol2bus.pkt_count_system.cpu0.dcache.mem_side::system.l2.cpu_side       897204                       # Packet count per connected master and slave (bytes)
system.tol2bus.pkt_count::total                897204                       # Packet count per connected master and slave (bytes)
system.tol2bus.pkt_size_system.cpu0.dcache.mem_side::system.l2.cpu_side     19322560                       # Cumulative packet size per connected master and slave (bytes)
system.tol2bus.pkt_size::total               19322560                       # Cumulative packet size per connected master and slave (bytes)
system.tol2bus.snoops                          186034                       # Total snoops (count)
system.tol2bus.snoopTraffic                     21568                       # Total snoop traffic (bytes)
system.tol2bus.snoop_fanout::samples           485102                       # Request fanout histogram
system.tol2bus.snoop_fanout::mean            0.000790                       # Request fanout histogram
system.tol2bus.snoop_fanout::stdev           0.028087                       # Request fanout histogram
system.tol2bus.snoop_fanout::underflows             0      0.00%      0.00% # Request fanout histogram
system.tol2bus.snoop_fanout::0                 484719     99.92%     99.92% # Request fanout histogram
system.tol2bus.snoop_fanout::1                    383      0.08%    100.00% # Request fanout histogram
system.tol2bus.snoop_fanout::2                      0      0.00%    100.00% # Request fanout histogram
system.tol2bus.snoop_fanout::3                      0      0.00%    100.00% # Request fanout histogram
system.tol2bus.snoop_fanout::4                      0      0.00%    100.00% # Request fanout histogram
system.tol2bus.snoop_fanout::5                      0      0.00%    100.00% # Request fanout histogram
system.tol2bus.snoop_fanout::6                      0      0.00%    100.00% # Request fanout histogram
system.tol2bus.snoop_fanout::7                      0      0.00%    100.00% # Request fanout histogram
system.tol2bus.snoop_fanout::8                      0      0.00%    100.00% # Request fanout histogram
system.tol2bus.snoop_fanout::9                      0      0.00%    100.00% # Request fanout histogram
system.tol2bus.snoop_fanout::10                     0      0.00%    100.00% # Request fanout histogram
system.tol2bus.snoop_fanout::11                     0      0.00%    100.00% # Request fanout histogram
system.tol2bus.snoop_fanout::12                     0      0.00%    100.00% # Request fanout histogram
system.tol2bus.snoop_fanout::13                     0      0.00%    100.00% # Request fanout histogram
system.tol2bus.snoop_fanout::14                     0      0.00%    100.00% # Request fanout histogram
system.tol2bus.snoop_fanout::15                     0      0.00%    100.00% # Request fanout histogram
system.tol2bus.snoop_fanout::16                     0      0.00%    100.00% # Request fanout histogram
system.tol2bus.snoop_fanout::overflows              0      0.00%    100.00% # Request fanout histogram
system.tol2bus.snoop_fanout::min_value              0                       # Request fanout histogram
system.tol2bus.snoop_fanout::max_value              1                       # Request fanout histogram
system.tol2bus.snoop_fanout::total             485102                       # Request fanout histogram
system.tol2bus.reqLayer0.occupancy          301915000                       # Layer occupancy (ticks)
system.tol2bus.reqLayer0.utilization              2.0                       # Layer utilization (%)
system.tol2bus.respLayer1.occupancy         448602000                       # Layer occupancy (ticks)
system.tol2bus.respLayer1.utilization             2.9                       # Layer utilization (%)

---------- End Simulation Statistics   ----------
