
---------- Begin Simulation Statistics ----------
sim_seconds                                  0.015267                       # Number of seconds simulated
sim_ticks                                 15267344125                       # Number of ticks simulated
final_tick                               8137494418625                       # Number of ticks from beginning of simulation (restored from checkpoints and never reset)
sim_freq                                 1000000000000                       # Frequency of simulated ticks
host_inst_rate                               63933733                       # Simulator instruction rate (inst/s)
host_op_rate                                119720958                       # Simulator op (including micro ops) rate (op/s)
host_tick_rate                              153675380                       # Simulator tick rate (ticks/s)
host_mem_usage                                2332640                       # Number of bytes of host memory used
host_seconds                                    99.35                       # Real time elapsed on the host
sim_insts                                  6351688358                       # Number of instructions simulated
sim_ops                                   11894038649                       # Number of ops (including micro ops) simulated
system.voltage_domain.voltage                       1                       # Voltage in Volts
system.clk_domain.clock                          1000                       # Clock period in ticks
system.mem_ctrls.pwrStateResidencyTicks::UNDEFINED  15267344125                       # Cumulative time (in ticks) in various power states
system.mem_ctrls.bytes_read::cpu0.inst            192                       # Number of bytes read from this memory
system.mem_ctrls.bytes_read::cpu0.data       13081664                       # Number of bytes read from this memory
system.mem_ctrls.bytes_read::total           13081856                       # Number of bytes read from this memory
system.mem_ctrls.bytes_inst_read::cpu0.inst          192                       # Number of instructions bytes read from this memory
system.mem_ctrls.bytes_inst_read::total           192                       # Number of instructions bytes read from this memory
system.mem_ctrls.bytes_written::writebacks      8779776                       # Number of bytes written to this memory
system.mem_ctrls.bytes_written::total         8779776                       # Number of bytes written to this memory
system.mem_ctrls.num_reads::cpu0.inst               3                       # Number of read requests responded to by this memory
system.mem_ctrls.num_reads::cpu0.data          204401                       # Number of read requests responded to by this memory
system.mem_ctrls.num_reads::total              204404                       # Number of read requests responded to by this memory
system.mem_ctrls.num_writes::writebacks        137184                       # Number of write requests responded to by this memory
system.mem_ctrls.num_writes::total             137184                       # Number of write requests responded to by this memory
system.mem_ctrls.bw_read::cpu0.inst             12576                       # Total read bandwidth from this memory (bytes/s)
system.mem_ctrls.bw_read::cpu0.data         856839532                       # Total read bandwidth from this memory (bytes/s)
system.mem_ctrls.bw_read::total             856852108                       # Total read bandwidth from this memory (bytes/s)
system.mem_ctrls.bw_inst_read::cpu0.inst        12576                       # Instruction read bandwidth from this memory (bytes/s)
system.mem_ctrls.bw_inst_read::total            12576                       # Instruction read bandwidth from this memory (bytes/s)
system.mem_ctrls.bw_write::writebacks       575068979                       # Write bandwidth from this memory (bytes/s)
system.mem_ctrls.bw_write::total            575068979                       # Write bandwidth from this memory (bytes/s)
system.mem_ctrls.bw_total::writebacks       575068979                       # Total bandwidth to/from this memory (bytes/s)
system.mem_ctrls.bw_total::cpu0.inst            12576                       # Total bandwidth to/from this memory (bytes/s)
system.mem_ctrls.bw_total::cpu0.data        856839532                       # Total bandwidth to/from this memory (bytes/s)
system.mem_ctrls.bw_total::total           1431921087                       # Total bandwidth to/from this memory (bytes/s)
system.mem_ctrls.readReqs                      204402                       # Number of read requests accepted
system.mem_ctrls.writeReqs                     137184                       # Number of write requests accepted
system.mem_ctrls.readBursts                    204402                       # Number of DRAM read bursts, including those serviced by the write queue
system.mem_ctrls.writeBursts                   137184                       # Number of DRAM write bursts, including those merged in the write queue
system.mem_ctrls.bytesReadDRAM               13081536                       # Total number of bytes read from DRAM
system.mem_ctrls.bytesReadWrQ                     192                       # Total number of bytes read from write queue
system.mem_ctrls.bytesWritten                 8779264                       # Total number of bytes written to DRAM
system.mem_ctrls.bytesReadSys                13081728                       # Total read bytes from the system interface side
system.mem_ctrls.bytesWrittenSys              8779776                       # Total written bytes from the system interface side
system.mem_ctrls.servicedByWrQ                      3                       # Number of DRAM read bursts serviced by the write queue
system.mem_ctrls.mergedWrBursts                     0                       # Number of DRAM write bursts merged with an existing one
system.mem_ctrls.neitherReadNorWriteReqs            0                       # Number of requests that are neither read nor write
system.mem_ctrls.perBankRdBursts::0             12766                       # Per bank write bursts
system.mem_ctrls.perBankRdBursts::1             12825                       # Per bank write bursts
system.mem_ctrls.perBankRdBursts::2             12780                       # Per bank write bursts
system.mem_ctrls.perBankRdBursts::3             12805                       # Per bank write bursts
system.mem_ctrls.perBankRdBursts::4             12815                       # Per bank write bursts
system.mem_ctrls.perBankRdBursts::5             12769                       # Per bank write bursts
system.mem_ctrls.perBankRdBursts::6             12739                       # Per bank write bursts
system.mem_ctrls.perBankRdBursts::7             12682                       # Per bank write bursts
system.mem_ctrls.perBankRdBursts::8             12726                       # Per bank write bursts
system.mem_ctrls.perBankRdBursts::9             12747                       # Per bank write bursts
system.mem_ctrls.perBankRdBursts::10            12796                       # Per bank write bursts
system.mem_ctrls.perBankRdBursts::11            12771                       # Per bank write bursts
system.mem_ctrls.perBankRdBursts::12            12851                       # Per bank write bursts
system.mem_ctrls.perBankRdBursts::13            12787                       # Per bank write bursts
system.mem_ctrls.perBankRdBursts::14            12809                       # Per bank write bursts
system.mem_ctrls.perBankRdBursts::15            12731                       # Per bank write bursts
system.mem_ctrls.perBankWrBursts::0              8514                       # Per bank write bursts
system.mem_ctrls.perBankWrBursts::1              8557                       # Per bank write bursts
system.mem_ctrls.perBankWrBursts::2              8548                       # Per bank write bursts
system.mem_ctrls.perBankWrBursts::3              8557                       # Per bank write bursts
system.mem_ctrls.perBankWrBursts::4              8573                       # Per bank write bursts
system.mem_ctrls.perBankWrBursts::5              8539                       # Per bank write bursts
system.mem_ctrls.perBankWrBursts::6              8587                       # Per bank write bursts
system.mem_ctrls.perBankWrBursts::7              8594                       # Per bank write bursts
system.mem_ctrls.perBankWrBursts::8              8625                       # Per bank write bursts
system.mem_ctrls.perBankWrBursts::9              8619                       # Per bank write bursts
system.mem_ctrls.perBankWrBursts::10             8617                       # Per bank write bursts
system.mem_ctrls.perBankWrBursts::11             8619                       # Per bank write bursts
system.mem_ctrls.perBankWrBursts::12             8576                       # Per bank write bursts
system.mem_ctrls.perBankWrBursts::13             8539                       # Per bank write bursts
system.mem_ctrls.perBankWrBursts::14             8553                       # Per bank write bursts
system.mem_ctrls.perBankWrBursts::15             8559                       # Per bank write bursts
system.mem_ctrls.numRdRetry                         0                       # Number of times read queue was full causing retry
system.mem_ctrls.numWrRetry                         0                       # Number of times write queue was full causing retry
system.mem_ctrls.totGap                   15267333000                       # Total gap between requests
system.mem_ctrls.readPktSize::0                     0                       # Read request sizes (log2)
system.mem_ctrls.readPktSize::1                     0                       # Read request sizes (log2)
system.mem_ctrls.readPktSize::2                     0                       # Read request sizes (log2)
system.mem_ctrls.readPktSize::3                     0                       # Read request sizes (log2)
system.mem_ctrls.readPktSize::4                     0                       # Read request sizes (log2)
system.mem_ctrls.readPktSize::5                     0                       # Read request sizes (log2)
system.mem_ctrls.readPktSize::6                204402                       # Read request sizes (log2)
system.mem_ctrls.writePktSize::0                    0                       # Write request sizes (log2)
system.mem_ctrls.writePktSize::1                    0                       # Write request sizes (log2)
system.mem_ctrls.writePktSize::2                    0                       # Write request sizes (log2)
system.mem_ctrls.writePktSize::3                    0                       # Write request sizes (log2)
system.mem_ctrls.writePktSize::4                    0                       # Write request sizes (log2)
system.mem_ctrls.writePktSize::5                    0                       # Write request sizes (log2)
system.mem_ctrls.writePktSize::6               137184                       # Write request sizes (log2)
system.mem_ctrls.rdQLenPdf::0                  135973                       # What read queue length does an incoming req see
system.mem_ctrls.rdQLenPdf::1                   60444                       # What read queue length does an incoming req see
system.mem_ctrls.rdQLenPdf::2                    7972                       # What read queue length does an incoming req see
system.mem_ctrls.rdQLenPdf::3                      10                       # What read queue length does an incoming req see
system.mem_ctrls.rdQLenPdf::4                       0                       # What read queue length does an incoming req see
system.mem_ctrls.rdQLenPdf::5                       0                       # What read queue length does an incoming req see
system.mem_ctrls.rdQLenPdf::6                       0                       # What read queue length does an incoming req see
system.mem_ctrls.rdQLenPdf::7                       0                       # What read queue length does an incoming req see
system.mem_ctrls.rdQLenPdf::8                       0                       # What read queue length does an incoming req see
system.mem_ctrls.rdQLenPdf::9                       0                       # What read queue length does an incoming req see
system.mem_ctrls.rdQLenPdf::10                      0                       # What read queue length does an incoming req see
system.mem_ctrls.rdQLenPdf::11                      0                       # What read queue length does an incoming req see
system.mem_ctrls.rdQLenPdf::12                      0                       # What read queue length does an incoming req see
system.mem_ctrls.rdQLenPdf::13                      0                       # What read queue length does an incoming req see
system.mem_ctrls.rdQLenPdf::14                      0                       # What read queue length does an incoming req see
system.mem_ctrls.rdQLenPdf::15                      0                       # What read queue length does an incoming req see
system.mem_ctrls.rdQLenPdf::16                      0                       # What read queue length does an incoming req see
system.mem_ctrls.rdQLenPdf::17                      0                       # What read queue length does an incoming req see
system.mem_ctrls.rdQLenPdf::18                      0                       # What read queue length does an incoming req see
system.mem_ctrls.rdQLenPdf::19                      0                       # What read queue length does an incoming req see
system.mem_ctrls.rdQLenPdf::20                      0                       # What read queue length does an incoming req see
system.mem_ctrls.rdQLenPdf::21                      0                       # What read queue length does an incoming req see
system.mem_ctrls.rdQLenPdf::22                      0                       # What read queue length does an incoming req see
system.mem_ctrls.rdQLenPdf::23                      0                       # What read queue length does an incoming req see
system.mem_ctrls.rdQLenPdf::24                      0                       # What read queue length does an incoming req see
system.mem_ctrls.rdQLenPdf::25                      0                       # What read queue length does an incoming req see
system.mem_ctrls.rdQLenPdf::26                      0                       # What read queue length does an incoming req see
system.mem_ctrls.rdQLenPdf::27                      0                       # What read queue length does an incoming req see
system.mem_ctrls.rdQLenPdf::28                      0                       # What read queue length does an incoming req see
system.mem_ctrls.rdQLenPdf::29                      0                       # What read queue length does an incoming req see
system.mem_ctrls.rdQLenPdf::30                      0                       # What read queue length does an incoming req see
system.mem_ctrls.rdQLenPdf::31                      0                       # What read queue length does an incoming req see
system.mem_ctrls.wrQLenPdf::0                       0                       # What write queue length does an incoming req see
system.mem_ctrls.wrQLenPdf::1                       0                       # What write queue length does an incoming req see
system.mem_ctrls.wrQLenPdf::2                       0                       # What write queue length does an incoming req see
system.mem_ctrls.wrQLenPdf::3                       0                       # What write queue length does an incoming req see
system.mem_ctrls.wrQLenPdf::4                       0                       # What write queue length does an incoming req see
system.mem_ctrls.wrQLenPdf::5                       0                       # What write queue length does an incoming req see
system.mem_ctrls.wrQLenPdf::6                       0                       # What write queue length does an incoming req see
system.mem_ctrls.wrQLenPdf::7                       0                       # What write queue length does an incoming req see
system.mem_ctrls.wrQLenPdf::8                       0                       # What write queue length does an incoming req see
system.mem_ctrls.wrQLenPdf::9                       0                       # What write queue length does an incoming req see
system.mem_ctrls.wrQLenPdf::10                      0                       # What write queue length does an incoming req see
system.mem_ctrls.wrQLenPdf::11                      0                       # What write queue length does an incoming req see
system.mem_ctrls.wrQLenPdf::12                      0                       # What write queue length does an incoming req see
system.mem_ctrls.wrQLenPdf::13                      0                       # What write queue length does an incoming req see
system.mem_ctrls.wrQLenPdf::14                      0                       # What write queue length does an incoming req see
system.mem_ctrls.wrQLenPdf::15                      9                       # What write queue length does an incoming req see
system.mem_ctrls.wrQLenPdf::16                     10                       # What write queue length does an incoming req see
system.mem_ctrls.wrQLenPdf::17                   6591                       # What write queue length does an incoming req see
system.mem_ctrls.wrQLenPdf::18                   8400                       # What write queue length does an incoming req see
system.mem_ctrls.wrQLenPdf::19                   8573                       # What write queue length does an incoming req see
system.mem_ctrls.wrQLenPdf::20                   8572                       # What write queue length does an incoming req see
system.mem_ctrls.wrQLenPdf::21                   8574                       # What write queue length does an incoming req see
system.mem_ctrls.wrQLenPdf::22                   8577                       # What write queue length does an incoming req see
system.mem_ctrls.wrQLenPdf::23                   8578                       # What write queue length does an incoming req see
system.mem_ctrls.wrQLenPdf::24                   8574                       # What write queue length does an incoming req see
system.mem_ctrls.wrQLenPdf::25                   8591                       # What write queue length does an incoming req see
system.mem_ctrls.wrQLenPdf::26                   8627                       # What write queue length does an incoming req see
system.mem_ctrls.wrQLenPdf::27                   8711                       # What write queue length does an incoming req see
system.mem_ctrls.wrQLenPdf::28                   8688                       # What write queue length does an incoming req see
system.mem_ctrls.wrQLenPdf::29                   8822                       # What write queue length does an incoming req see
system.mem_ctrls.wrQLenPdf::30                   9911                       # What write queue length does an incoming req see
system.mem_ctrls.wrQLenPdf::31                   8741                       # What write queue length does an incoming req see
system.mem_ctrls.wrQLenPdf::32                   8630                       # What write queue length does an incoming req see
system.mem_ctrls.wrQLenPdf::33                      5                       # What write queue length does an incoming req see
system.mem_ctrls.wrQLenPdf::34                      0                       # What write queue length does an incoming req see
system.mem_ctrls.wrQLenPdf::35                      0                       # What write queue length does an incoming req see
system.mem_ctrls.wrQLenPdf::36                      0                       # What write queue length does an incoming req see
system.mem_ctrls.wrQLenPdf::37                      0                       # What write queue length does an incoming req see
system.mem_ctrls.wrQLenPdf::38                      0                       # What write queue length does an incoming req see
system.mem_ctrls.wrQLenPdf::39                      0                       # What write queue length does an incoming req see
system.mem_ctrls.wrQLenPdf::40                      0                       # What write queue length does an incoming req see
system.mem_ctrls.wrQLenPdf::41                      0                       # What write queue length does an incoming req see
system.mem_ctrls.wrQLenPdf::42                      0                       # What write queue length does an incoming req see
system.mem_ctrls.wrQLenPdf::43                      0                       # What write queue length does an incoming req see
system.mem_ctrls.wrQLenPdf::44                      0                       # What write queue length does an incoming req see
system.mem_ctrls.wrQLenPdf::45                      0                       # What write queue length does an incoming req see
system.mem_ctrls.wrQLenPdf::46                      0                       # What write queue length does an incoming req see
system.mem_ctrls.wrQLenPdf::47                      0                       # What write queue length does an incoming req see
system.mem_ctrls.wrQLenPdf::48                      0                       # What write queue length does an incoming req see
system.mem_ctrls.wrQLenPdf::49                      0                       # What write queue length does an incoming req see
system.mem_ctrls.wrQLenPdf::50                      0                       # What write queue length does an incoming req see
system.mem_ctrls.wrQLenPdf::51                      0                       # What write queue length does an incoming req see
system.mem_ctrls.wrQLenPdf::52                      0                       # What write queue length does an incoming req see
system.mem_ctrls.wrQLenPdf::53                      0                       # What write queue length does an incoming req see
system.mem_ctrls.wrQLenPdf::54                      0                       # What write queue length does an incoming req see
system.mem_ctrls.wrQLenPdf::55                      0                       # What write queue length does an incoming req see
system.mem_ctrls.wrQLenPdf::56                      0                       # What write queue length does an incoming req see
system.mem_ctrls.wrQLenPdf::57                      0                       # What write queue length does an incoming req see
system.mem_ctrls.wrQLenPdf::58                      0                       # What write queue length does an incoming req see
system.mem_ctrls.wrQLenPdf::59                      0                       # What write queue length does an incoming req see
system.mem_ctrls.wrQLenPdf::60                      0                       # What write queue length does an incoming req see
system.mem_ctrls.wrQLenPdf::61                      0                       # What write queue length does an incoming req see
system.mem_ctrls.wrQLenPdf::62                      0                       # What write queue length does an incoming req see
system.mem_ctrls.wrQLenPdf::63                      0                       # What write queue length does an incoming req see
system.mem_ctrls.bytesPerActivate::samples       208979                       # Bytes accessed per row activation
system.mem_ctrls.bytesPerActivate::mean    104.611928                       # Bytes accessed per row activation
system.mem_ctrls.bytesPerActivate::gmean    87.389214                       # Bytes accessed per row activation
system.mem_ctrls.bytesPerActivate::stdev    93.445172                       # Bytes accessed per row activation
system.mem_ctrls.bytesPerActivate::0-127       143425     68.63%     68.63% # Bytes accessed per row activation
system.mem_ctrls.bytesPerActivate::128-255        49947     23.90%     92.53% # Bytes accessed per row activation
system.mem_ctrls.bytesPerActivate::256-383        11691      5.59%     98.13% # Bytes accessed per row activation
system.mem_ctrls.bytesPerActivate::384-511         2275      1.09%     99.21% # Bytes accessed per row activation
system.mem_ctrls.bytesPerActivate::512-639          461      0.22%     99.44% # Bytes accessed per row activation
system.mem_ctrls.bytesPerActivate::640-767          190      0.09%     99.53% # Bytes accessed per row activation
system.mem_ctrls.bytesPerActivate::768-895          112      0.05%     99.58% # Bytes accessed per row activation
system.mem_ctrls.bytesPerActivate::896-1023           91      0.04%     99.62% # Bytes accessed per row activation
system.mem_ctrls.bytesPerActivate::1024-1151          787      0.38%    100.00% # Bytes accessed per row activation
system.mem_ctrls.bytesPerActivate::total       208979                       # Bytes accessed per row activation
system.mem_ctrls.rdPerTurnAround::samples         8572                       # Reads before turning the bus around for writes
system.mem_ctrls.rdPerTurnAround::mean      23.844144                       # Reads before turning the bus around for writes
system.mem_ctrls.rdPerTurnAround::gmean     23.586635                       # Reads before turning the bus around for writes
system.mem_ctrls.rdPerTurnAround::stdev      3.551015                       # Reads before turning the bus around for writes
system.mem_ctrls.rdPerTurnAround::14-15             5      0.06%      0.06% # Reads before turning the bus around for writes
system.mem_ctrls.rdPerTurnAround::16-17           141      1.64%      1.70% # Reads before turning the bus around for writes
system.mem_ctrls.rdPerTurnAround::18-19           692      8.07%      9.78% # Reads before turning the bus around for writes
system.mem_ctrls.rdPerTurnAround::20-21          1517     17.70%     27.47% # Reads before turning the bus around for writes
system.mem_ctrls.rdPerTurnAround::22-23          1848     21.56%     49.03% # Reads before turning the bus around for writes
system.mem_ctrls.rdPerTurnAround::24-25          1828     21.33%     70.36% # Reads before turning the bus around for writes
system.mem_ctrls.rdPerTurnAround::26-27          1281     14.94%     85.30% # Reads before turning the bus around for writes
system.mem_ctrls.rdPerTurnAround::28-29           682      7.96%     93.26% # Reads before turning the bus around for writes
system.mem_ctrls.rdPerTurnAround::30-31           335      3.91%     97.17% # Reads before turning the bus around for writes
system.mem_ctrls.rdPerTurnAround::32-33           159      1.85%     99.02% # Reads before turning the bus around for writes
system.mem_ctrls.rdPerTurnAround::34-35            55      0.64%     99.66% # Reads before turning the bus around for writes
system.mem_ctrls.rdPerTurnAround::36-37            21      0.24%     99.91% # Reads before turning the bus around for writes
system.mem_ctrls.rdPerTurnAround::38-39             5      0.06%     99.97% # Reads before turning the bus around for writes
system.mem_ctrls.rdPerTurnAround::40-41             3      0.03%    100.00% # Reads before turning the bus around for writes
system.mem_ctrls.rdPerTurnAround::total          8572                       # Reads before turning the bus around for writes
system.mem_ctrls.wrPerTurnAround::samples         8572                       # Writes before turning the bus around for reads
system.mem_ctrls.wrPerTurnAround::mean      16.002800                       # Writes before turning the bus around for reads
system.mem_ctrls.wrPerTurnAround::gmean     16.002627                       # Writes before turning the bus around for reads
system.mem_ctrls.wrPerTurnAround::stdev      0.077840                       # Writes before turning the bus around for reads
system.mem_ctrls.wrPerTurnAround::16             8560     99.86%     99.86% # Writes before turning the bus around for reads
system.mem_ctrls.wrPerTurnAround::17                2      0.02%     99.88% # Writes before turning the bus around for reads
system.mem_ctrls.wrPerTurnAround::18                8      0.09%     99.98% # Writes before turning the bus around for reads
system.mem_ctrls.wrPerTurnAround::19                2      0.02%    100.00% # Writes before turning the bus around for reads
system.mem_ctrls.wrPerTurnAround::total          8572                       # Writes before turning the bus around for reads
system.mem_ctrls.totQLat                   5684457250                       # Total ticks spent queuing
system.mem_ctrls.totMemAccLat              9516938500                       # Total ticks spent from burst creation until serviced by the DRAM
system.mem_ctrls.totBusLat                 1021995000                       # Total ticks spent in databus transfers
system.mem_ctrls.avgQLat                     27810.59                       # Average queueing delay per DRAM burst
system.mem_ctrls.avgBusLat                    5000.00                       # Average bus latency per DRAM burst
system.mem_ctrls.avgMemAccLat                46560.59                       # Average memory access latency per DRAM burst
system.mem_ctrls.avgRdBW                       856.83                       # Average DRAM read bandwidth in MiByte/s
system.mem_ctrls.avgWrBW                       575.04                       # Average achieved write bandwidth in MiByte/s
system.mem_ctrls.avgRdBWSys                    856.84                       # Average system read bandwidth in MiByte/s
system.mem_ctrls.avgWrBWSys                    575.07                       # Average system write bandwidth in MiByte/s
system.mem_ctrls.peakBW                      12800.00                       # Theoretical peak bandwidth in MiByte/s
system.mem_ctrls.busUtil                        11.19                       # Data bus utilization in percentage
system.mem_ctrls.busUtilRead                     6.69                       # Data bus utilization in percentage for reads
system.mem_ctrls.busUtilWrite                    4.49                       # Data bus utilization in percentage for writes
system.mem_ctrls.avgRdQLen                       1.50                       # Average read queue length when enqueuing
system.mem_ctrls.avgWrQLen                      26.30                       # Average write queue length when enqueuing
system.mem_ctrls.readRowHits                   122973                       # Number of row buffer hits during reads
system.mem_ctrls.writeRowHits                    9630                       # Number of row buffer hits during writes
system.mem_ctrls.readRowHitRate                 60.16                       # Row buffer hit rate for reads
system.mem_ctrls.writeRowHitRate                 7.02                       # Row buffer hit rate for writes
system.mem_ctrls.avgGap                      44695.43                       # Average gap between requests
system.mem_ctrls.pageHitRate                    38.82                       # Row buffer hit rate, read and write combined
system.mem_ctrls_0.actEnergy                745780140                       # Energy for activate commands per rank (pJ)
system.mem_ctrls_0.preEnergy                396402930                       # Energy for precharge commands per rank (pJ)
system.mem_ctrls_0.readEnergy               729572340                       # Energy for read commands per rank (pJ)
system.mem_ctrls_0.writeEnergy              357408180                       # Energy for write commands per rank (pJ)
system.mem_ctrls_0.refreshEnergy         1159825680.000000                       # Energy for refresh commands per rank (pJ)
system.mem_ctrls_0.actBackEnergy           2818573620                       # Energy for active background per rank (pJ)
system.mem_ctrls_0.preBackEnergy             32078400                       # Energy for precharge background per rank (pJ)
system.mem_ctrls_0.actPowerDownEnergy      3629906490                       # Energy for active power-down per rank (pJ)
system.mem_ctrls_0.prePowerDownEnergy       138545760                       # Energy for precharge power-down per rank (pJ)
system.mem_ctrls_0.selfRefreshEnergy        171869100                       # Energy for self refresh per rank (pJ)
system.mem_ctrls_0.totalEnergy            10179962640                       # Total energy per rank (pJ)
system.mem_ctrls_0.averagePower            666.780192                       # Core power per rank (mW)
system.mem_ctrls_0.totalIdleTime           9003150500                       # Total Idle time Per DRAM Rank
system.mem_ctrls_0.memoryStateTime::IDLE     13363750                       # Time in different power states
system.mem_ctrls_0.memoryStateTime::REF     490710000                       # Time in different power states
system.mem_ctrls_0.memoryStateTime::SREF    681605500                       # Time in different power states
system.mem_ctrls_0.memoryStateTime::PRE_PDN    360633000                       # Time in different power states
system.mem_ctrls_0.memoryStateTime::ACT    5760119875                       # Time in different power states
system.mem_ctrls_0.memoryStateTime::ACT_PDN   7960912000                       # Time in different power states
system.mem_ctrls_1.actEnergy                746279940                       # Energy for activate commands per rank (pJ)
system.mem_ctrls_1.preEnergy                396672375                       # Energy for precharge commands per rank (pJ)
system.mem_ctrls_1.readEnergy               729843660                       # Energy for read commands per rank (pJ)
system.mem_ctrls_1.writeEnergy              358650540                       # Energy for write commands per rank (pJ)
system.mem_ctrls_1.refreshEnergy         1159211040.000000                       # Energy for refresh commands per rank (pJ)
system.mem_ctrls_1.actBackEnergy           2827433130                       # Energy for active background per rank (pJ)
system.mem_ctrls_1.preBackEnergy             32314080                       # Energy for precharge background per rank (pJ)
system.mem_ctrls_1.actPowerDownEnergy      3617259900                       # Energy for active power-down per rank (pJ)
system.mem_ctrls_1.prePowerDownEnergy       134380320                       # Energy for precharge power-down per rank (pJ)
system.mem_ctrls_1.selfRefreshEnergy        177422880                       # Energy for self refresh per rank (pJ)
system.mem_ctrls_1.totalEnergy            10179549525                       # Total energy per rank (pJ)
system.mem_ctrls_1.averagePower            666.753133                       # Core power per rank (mW)
system.mem_ctrls_1.totalIdleTime           8933668750                       # Total Idle time Per DRAM Rank
system.mem_ctrls_1.memoryStateTime::IDLE     13562750                       # Time in different power states
system.mem_ctrls_1.memoryStateTime::REF     490474000                       # Time in different power states
system.mem_ctrls_1.memoryStateTime::SREF    699961125                       # Time in different power states
system.mem_ctrls_1.memoryStateTime::PRE_PDN    350147000                       # Time in different power states
system.mem_ctrls_1.memoryStateTime::ACT    5780792000                       # Time in different power states
system.mem_ctrls_1.memoryStateTime::ACT_PDN   7932407250                       # Time in different power states
system.pwrStateResidencyTicks::UNDEFINED  15267344125                       # Cumulative time (in ticks) in various power states
system.cpu0.branchPred.lookups                3302131                       # Number of BP lookups
system.cpu0.branchPred.condPredicted          3302131                       # Number of conditional branches predicted
system.cpu0.branchPred.condIncorrect              242                       # Number of conditional branches incorrect
system.cpu0.branchPred.BTBLookups             2914392                       # Number of BTB lookups
system.cpu0.branchPred.BTBHits                      0                       # Number of BTB hits
system.cpu0.branchPred.BTBCorrect                   0                       # Number of correct BTB predictions (this stat may not work properly.
system.cpu0.branchPred.BTBHitPct             0.000000                       # BTB Hit Percentage
system.cpu0.branchPred.usedRAS                 243571                       # Number of times the RAS was used to get a target.
system.cpu0.branchPred.RASInCorrect                 4                       # Number of incorrect RAS predictions.
system.cpu0.branchPred.indirectLookups        2914392                       # Number of indirect predictor lookups.
system.cpu0.branchPred.indirectHits           1407379                       # Number of indirect target hits.
system.cpu0.branchPred.indirectMisses         1507013                       # Number of indirect misses.
system.cpu0.branchPredindirectMispredicted           38                       # Number of mispredicted indirect branches.
system.cpu_voltage_domain.voltage                   1                       # Voltage in Volts
system.cpu_clk_domain.clock                       500                       # Clock period in ticks
system.cpu0.dtb.walker.pwrStateResidencyTicks::UNDEFINED  15267344125                       # Cumulative time (in ticks) in various power states
system.cpu0.dtb.rdAccesses                    3322872                       # TLB accesses on read requests
system.cpu0.dtb.wrAccesses                    2105019                       # TLB accesses on write requests
system.cpu0.dtb.rdMisses                        97006                       # TLB misses on read requests
system.cpu0.dtb.wrMisses                            7                       # TLB misses on write requests
system.cpu0.apic_clk_domain.clock                8000                       # Clock period in ticks
system.cpu0.interrupts.pwrStateResidencyTicks::UNDEFINED  15267344125                       # Cumulative time (in ticks) in various power states
system.cpu0.itb.walker.pwrStateResidencyTicks::UNDEFINED  15267344125                       # Cumulative time (in ticks) in various power states
system.cpu0.itb.rdAccesses                          0                       # TLB accesses on read requests
system.cpu0.itb.wrAccesses                    1939811                       # TLB accesses on write requests
system.cpu0.itb.rdMisses                            0                       # TLB misses on read requests
system.cpu0.itb.wrMisses                            0                       # TLB misses on write requests
system.cpu0.workload.numSyscalls                    0                       # Number of system calls
system.cpu0.pwrStateResidencyTicks::ON    15267344125                       # Cumulative time (in ticks) in various power states
system.cpu0.numCycles                        30534688                       # number of cpu cycles simulated
system.cpu0.numWorkItemsStarted                     0                       # number of work items this cpu started
system.cpu0.numWorkItemsCompleted                   0                       # number of work items this cpu completed
system.cpu0.fetch.icacheStallCycles           1940103                       # Number of cycles fetch is stalled on an Icache miss
system.cpu0.fetch.Insts                      13443331                       # Number of instructions fetch has processed
system.cpu0.fetch.Branches                    3302131                       # Number of branches that fetch encountered
system.cpu0.fetch.predictedBranches           1650950                       # Number of branches that fetch has predicted taken
system.cpu0.fetch.Cycles                     28594246                       # Number of cycles fetch has run and was not squashing or blocked
system.cpu0.fetch.SquashCycles                    528                       # Number of cycles fetch has spent squashing
system.cpu0.fetch.CacheLines                  1939811                       # Number of cache lines fetched
system.cpu0.fetch.IcacheSquashes                   27                       # Number of outstanding Icache misses that were squashed
system.cpu0.fetch.rateDist::samples          30534613                       # Number of instructions fetched each cycle (Total)
system.cpu0.fetch.rateDist::mean             0.919974                       # Number of instructions fetched each cycle (Total)
system.cpu0.fetch.rateDist::stdev            2.348489                       # Number of instructions fetched each cycle (Total)
system.cpu0.fetch.rateDist::underflows              0      0.00%      0.00% # Number of instructions fetched each cycle (Total)
system.cpu0.fetch.rateDist::0                25757595     84.36%     84.36% # Number of instructions fetched each cycle (Total)
system.cpu0.fetch.rateDist::1                  370268      1.21%     85.57% # Number of instructions fetched each cycle (Total)
system.cpu0.fetch.rateDist::2                  366969      1.20%     86.77% # Number of instructions fetched each cycle (Total)
system.cpu0.fetch.rateDist::3                  329048      1.08%     87.85% # Number of instructions fetched each cycle (Total)
system.cpu0.fetch.rateDist::4                  222786      0.73%     88.58% # Number of instructions fetched each cycle (Total)
system.cpu0.fetch.rateDist::5                  650358      2.13%     90.71% # Number of instructions fetched each cycle (Total)
system.cpu0.fetch.rateDist::6                  342109      1.12%     91.83% # Number of instructions fetched each cycle (Total)
system.cpu0.fetch.rateDist::7                  159743      0.52%     92.35% # Number of instructions fetched each cycle (Total)
system.cpu0.fetch.rateDist::8                 2335737      7.65%    100.00% # Number of instructions fetched each cycle (Total)
system.cpu0.fetch.rateDist::overflows               0      0.00%    100.00% # Number of instructions fetched each cycle (Total)
system.cpu0.fetch.rateDist::min_value               0                       # Number of instructions fetched each cycle (Total)
system.cpu0.fetch.rateDist::max_value               8                       # Number of instructions fetched each cycle (Total)
system.cpu0.fetch.rateDist::total            30534613                       # Number of instructions fetched each cycle (Total)
system.cpu0.fetch.branchRate                 0.108144                       # Number of branch fetches per cycle
system.cpu0.fetch.rate                       0.440264                       # Number of inst fetches per cycle
system.cpu0.decode.IdleCycles                  755348                       # Number of cycles decode is idle
system.cpu0.decode.BlockedCycles             25963741                       # Number of cycles decode is blocked
system.cpu0.decode.RunCycles                  2907480                       # Number of cycles decode is running
system.cpu0.decode.UnblockCycles               907780                       # Number of cycles decode is unblocking
system.cpu0.decode.SquashCycles                   264                       # Number of cycles decode is squashing
system.cpu0.decode.DecodedInsts              28084366                       # Number of instructions handled by decode
system.cpu0.rename.SquashCycles                   264                       # Number of cycles rename is squashing
system.cpu0.rename.IdleCycles                 1268068                       # Number of cycles rename is idle
system.cpu0.rename.BlockCycles               23671447                       # Number of cycles rename is blocking
system.cpu0.rename.serializeStallCycles            23                       # count of cycles rename stalled for serializing inst
system.cpu0.rename.RunCycles                  3273967                       # Number of cycles rename is running
system.cpu0.rename.UnblockCycles              2320844                       # Number of cycles rename is unblocking
system.cpu0.rename.RenamedInsts              28083148                       # Number of instructions processed by rename
system.cpu0.rename.ROBFullEvents               228157                       # Number of times rename has blocked due to ROB full
system.cpu0.rename.IQFullEvents               1761046                       # Number of times rename has blocked due to IQ full
system.cpu0.rename.LQFullEvents                     5                       # Number of times rename has blocked due to LQ full
system.cpu0.rename.RenamedOperands           31117941                       # Number of destination operands rename has renamed
system.cpu0.rename.RenameLookups             72802265                       # Number of register rename lookups that rename has made
system.cpu0.rename.int_rename_lookups        42029406                       # Number of integer rename lookups
system.cpu0.rename.CommittedMaps             31094652                       # Number of HB maps that are committed
system.cpu0.rename.UndoneMaps                   23354                       # Number of HB maps that are undone due to squashing
system.cpu0.rename.serializingInsts                 3                       # count of serializing insts renamed
system.cpu0.rename.tempSerializingInsts             3                       # count of temporary serializing insts renamed
system.cpu0.rename.skidInsts                  6254914                       # count of insts added to the skid buffer
system.cpu0.memDep0.insertedLoads             3323442                       # Number of loads inserted to the mem dependence unit.
system.cpu0.memDep0.insertedStores            2105773                       # Number of stores inserted to the mem dependence unit.
system.cpu0.memDep0.conflictingLoads           125873                       # Number of conflicting loads.
system.cpu0.memDep0.conflictingStores          130282                       # Number of conflicting stores.
system.cpu0.iq.iqInstsAdded                  28081338                       # Number of instructions added to the IQ (excludes non-spec)
system.cpu0.iq.iqNonSpecInstsAdded                 51                       # Number of non-speculative instructions added to the IQ
system.cpu0.iq.iqInstsIssued                 28075181                       # Number of instructions issued
system.cpu0.iq.iqSquashedInstsIssued              314                       # Number of squashed instructions issued
system.cpu0.iq.iqSquashedInstsExamined          19997                       # Number of squashed instructions iterated over during squash; mainly for profiling
system.cpu0.iq.iqSquashedOperandsExamined        26434                       # Number of squashed operands that are examined and possibly removed from graph
system.cpu0.iq.iqSquashedNonSpecRemoved            48                       # Number of squashed non-spec instructions that were removed
system.cpu0.iq.issued_per_cycle::samples     30534613                       # Number of insts issued each cycle
system.cpu0.iq.issued_per_cycle::mean        0.919454                       # Number of insts issued each cycle
system.cpu0.iq.issued_per_cycle::stdev       2.017038                       # Number of insts issued each cycle
system.cpu0.iq.issued_per_cycle::underflows            0      0.00%      0.00% # Number of insts issued each cycle
system.cpu0.iq.issued_per_cycle::0           23673971     77.53%     77.53% # Number of insts issued each cycle
system.cpu0.iq.issued_per_cycle::1            1027081      3.36%     80.90% # Number of insts issued each cycle
system.cpu0.iq.issued_per_cycle::2            1086020      3.56%     84.45% # Number of insts issued each cycle
system.cpu0.iq.issued_per_cycle::3            1165025      3.82%     88.27% # Number of insts issued each cycle
system.cpu0.iq.issued_per_cycle::4             661798      2.17%     90.43% # Number of insts issued each cycle
system.cpu0.iq.issued_per_cycle::5             815252      2.67%     93.10% # Number of insts issued each cycle
system.cpu0.iq.issued_per_cycle::6             629417      2.06%     95.17% # Number of insts issued each cycle
system.cpu0.iq.issued_per_cycle::7             927361      3.04%     98.20% # Number of insts issued each cycle
system.cpu0.iq.issued_per_cycle::8             548688      1.80%    100.00% # Number of insts issued each cycle
system.cpu0.iq.issued_per_cycle::overflows            0      0.00%    100.00% # Number of insts issued each cycle
system.cpu0.iq.issued_per_cycle::min_value            0                       # Number of insts issued each cycle
system.cpu0.iq.issued_per_cycle::max_value            8                       # Number of insts issued each cycle
system.cpu0.iq.issued_per_cycle::total       30534613                       # Number of insts issued each cycle
system.cpu0.iq.fu_full::No_OpClass                  0      0.00%      0.00% # attempts to use FU when none available
system.cpu0.iq.fu_full::IntAlu                 783908     94.04%     94.04% # attempts to use FU when none available
system.cpu0.iq.fu_full::IntMult                     0      0.00%     94.04% # attempts to use FU when none available
system.cpu0.iq.fu_full::IntDiv                      0      0.00%     94.04% # attempts to use FU when none available
system.cpu0.iq.fu_full::FloatAdd                    0      0.00%     94.04% # attempts to use FU when none available
system.cpu0.iq.fu_full::FloatCmp                    0      0.00%     94.04% # attempts to use FU when none available
system.cpu0.iq.fu_full::FloatCvt                    0      0.00%     94.04% # attempts to use FU when none available
system.cpu0.iq.fu_full::FloatMult                   0      0.00%     94.04% # attempts to use FU when none available
system.cpu0.iq.fu_full::FloatMultAcc                0      0.00%     94.04% # attempts to use FU when none available
system.cpu0.iq.fu_full::FloatDiv                    0      0.00%     94.04% # attempts to use FU when none available
system.cpu0.iq.fu_full::FloatMisc                   0      0.00%     94.04% # attempts to use FU when none available
system.cpu0.iq.fu_full::FloatSqrt                   0      0.00%     94.04% # attempts to use FU when none available
system.cpu0.iq.fu_full::SimdAdd                     0      0.00%     94.04% # attempts to use FU when none available
system.cpu0.iq.fu_full::SimdAddAcc                  0      0.00%     94.04% # attempts to use FU when none available
system.cpu0.iq.fu_full::SimdAlu                     0      0.00%     94.04% # attempts to use FU when none available
system.cpu0.iq.fu_full::SimdCmp                     0      0.00%     94.04% # attempts to use FU when none available
system.cpu0.iq.fu_full::SimdCvt                     0      0.00%     94.04% # attempts to use FU when none available
system.cpu0.iq.fu_full::SimdMisc                    0      0.00%     94.04% # attempts to use FU when none available
system.cpu0.iq.fu_full::SimdMult                    0      0.00%     94.04% # attempts to use FU when none available
system.cpu0.iq.fu_full::SimdMultAcc                 0      0.00%     94.04% # attempts to use FU when none available
system.cpu0.iq.fu_full::SimdShift                   0      0.00%     94.04% # attempts to use FU when none available
system.cpu0.iq.fu_full::SimdShiftAcc                0      0.00%     94.04% # attempts to use FU when none available
system.cpu0.iq.fu_full::SimdSqrt                    0      0.00%     94.04% # attempts to use FU when none available
system.cpu0.iq.fu_full::SimdFloatAdd                0      0.00%     94.04% # attempts to use FU when none available
system.cpu0.iq.fu_full::SimdFloatAlu                0      0.00%     94.04% # attempts to use FU when none available
system.cpu0.iq.fu_full::SimdFloatCmp                0      0.00%     94.04% # attempts to use FU when none available
system.cpu0.iq.fu_full::SimdFloatCvt                0      0.00%     94.04% # attempts to use FU when none available
system.cpu0.iq.fu_full::SimdFloatDiv                0      0.00%     94.04% # attempts to use FU when none available
system.cpu0.iq.fu_full::SimdFloatMisc               0      0.00%     94.04% # attempts to use FU when none available
system.cpu0.iq.fu_full::SimdFloatMult               0      0.00%     94.04% # attempts to use FU when none available
system.cpu0.iq.fu_full::SimdFloatMultAcc            0      0.00%     94.04% # attempts to use FU when none available
system.cpu0.iq.fu_full::SimdFloatSqrt               0      0.00%     94.04% # attempts to use FU when none available
system.cpu0.iq.fu_full::MemRead                 11139      1.34%     95.38% # attempts to use FU when none available
system.cpu0.iq.fu_full::MemWrite                38511      4.62%    100.00% # attempts to use FU when none available
system.cpu0.iq.fu_full::FloatMemRead                0      0.00%    100.00% # attempts to use FU when none available
system.cpu0.iq.fu_full::FloatMemWrite               0      0.00%    100.00% # attempts to use FU when none available
system.cpu0.iq.fu_full::IprAccess                   0      0.00%    100.00% # attempts to use FU when none available
system.cpu0.iq.fu_full::InstPrefetch                0      0.00%    100.00% # attempts to use FU when none available
system.cpu0.iq.FU_type_0::No_OpClass              211      0.00%      0.00% # Type of FU issued
system.cpu0.iq.FU_type_0::IntAlu             22646903     80.67%     80.67% # Type of FU issued
system.cpu0.iq.FU_type_0::IntMult                   0      0.00%     80.67% # Type of FU issued
system.cpu0.iq.FU_type_0::IntDiv                    0      0.00%     80.67% # Type of FU issued
system.cpu0.iq.FU_type_0::FloatAdd                  0      0.00%     80.67% # Type of FU issued
system.cpu0.iq.FU_type_0::FloatCmp                  0      0.00%     80.67% # Type of FU issued
system.cpu0.iq.FU_type_0::FloatCvt                  0      0.00%     80.67% # Type of FU issued
system.cpu0.iq.FU_type_0::FloatMult                 0      0.00%     80.67% # Type of FU issued
system.cpu0.iq.FU_type_0::FloatMultAcc              0      0.00%     80.67% # Type of FU issued
system.cpu0.iq.FU_type_0::FloatDiv                  0      0.00%     80.67% # Type of FU issued
system.cpu0.iq.FU_type_0::FloatMisc                 0      0.00%     80.67% # Type of FU issued
system.cpu0.iq.FU_type_0::FloatSqrt                 0      0.00%     80.67% # Type of FU issued
system.cpu0.iq.FU_type_0::SimdAdd                   0      0.00%     80.67% # Type of FU issued
system.cpu0.iq.FU_type_0::SimdAddAcc                0      0.00%     80.67% # Type of FU issued
system.cpu0.iq.FU_type_0::SimdAlu                   0      0.00%     80.67% # Type of FU issued
system.cpu0.iq.FU_type_0::SimdCmp                   0      0.00%     80.67% # Type of FU issued
system.cpu0.iq.FU_type_0::SimdCvt                   0      0.00%     80.67% # Type of FU issued
system.cpu0.iq.FU_type_0::SimdMisc                  0      0.00%     80.67% # Type of FU issued
system.cpu0.iq.FU_type_0::SimdMult                  0      0.00%     80.67% # Type of FU issued
system.cpu0.iq.FU_type_0::SimdMultAcc               0      0.00%     80.67% # Type of FU issued
system.cpu0.iq.FU_type_0::SimdShift                 0      0.00%     80.67% # Type of FU issued
system.cpu0.iq.FU_type_0::SimdShiftAcc              0      0.00%     80.67% # Type of FU issued
system.cpu0.iq.FU_type_0::SimdSqrt                  0      0.00%     80.67% # Type of FU issued
system.cpu0.iq.FU_type_0::SimdFloatAdd              0      0.00%     80.67% # Type of FU issued
system.cpu0.iq.FU_type_0::SimdFloatAlu              0      0.00%     80.67% # Type of FU issued
system.cpu0.iq.FU_type_0::SimdFloatCmp              0      0.00%     80.67% # Type of FU issued
system.cpu0.iq.FU_type_0::SimdFloatCvt              0      0.00%     80.67% # Type of FU issued
system.cpu0.iq.FU_type_0::SimdFloatDiv              0      0.00%     80.67% # Type of FU issued
system.cpu0.iq.FU_type_0::SimdFloatMisc             0      0.00%     80.67% # Type of FU issued
system.cpu0.iq.FU_type_0::SimdFloatMult             0      0.00%     80.67% # Type of FU issued
system.cpu0.iq.FU_type_0::SimdFloatMultAcc            0      0.00%     80.67% # Type of FU issued
system.cpu0.iq.FU_type_0::SimdFloatSqrt             0      0.00%     80.67% # Type of FU issued
system.cpu0.iq.FU_type_0::MemRead             3322966     11.84%     92.50% # Type of FU issued
system.cpu0.iq.FU_type_0::MemWrite            2105101      7.50%    100.00% # Type of FU issued
system.cpu0.iq.FU_type_0::FloatMemRead              0      0.00%    100.00% # Type of FU issued
system.cpu0.iq.FU_type_0::FloatMemWrite             0      0.00%    100.00% # Type of FU issued
system.cpu0.iq.FU_type_0::IprAccess                 0      0.00%    100.00% # Type of FU issued
system.cpu0.iq.FU_type_0::InstPrefetch              0      0.00%    100.00% # Type of FU issued
system.cpu0.iq.FU_type_0::total              28075181                       # Type of FU issued
system.cpu0.iq.rate                          0.919452                       # Inst issue rate
system.cpu0.iq.fu_busy_cnt                     833558                       # FU busy when requested
system.cpu0.iq.fu_busy_rate                  0.029690                       # FU busy rate (busy events/executed inst)
system.cpu0.iq.int_inst_queue_reads          87518847                       # Number of integer instruction queue reads
system.cpu0.iq.int_inst_queue_writes         28101408                       # Number of integer instruction queue writes
system.cpu0.iq.int_inst_queue_wakeup_accesses     28074420                       # Number of integer instruction queue wakeup accesses
system.cpu0.iq.fp_inst_queue_reads                  0                       # Number of floating instruction queue reads
system.cpu0.iq.fp_inst_queue_writes                 0                       # Number of floating instruction queue writes
system.cpu0.iq.fp_inst_queue_wakeup_accesses            0                       # Number of floating instruction queue wakeup accesses
system.cpu0.iq.vec_inst_queue_reads                 0                       # Number of vector instruction queue reads
system.cpu0.iq.vec_inst_queue_writes                0                       # Number of vector instruction queue writes
system.cpu0.iq.vec_inst_queue_wakeup_accesses            0                       # Number of vector instruction queue wakeup accesses
system.cpu0.iq.int_alu_accesses              28908528                       # Number of integer alu accesses
system.cpu0.iq.fp_alu_accesses                      0                       # Number of floating point alu accesses
system.cpu0.iq.vec_alu_accesses                     0                       # Number of vector alu accesses
system.cpu0.iew.lsq.thread0.forwLoads          978500                       # Number of loads that had data forwarded from stores
system.cpu0.iew.lsq.thread0.invAddrLoads            0                       # Number of loads ignored due to an invalid address
system.cpu0.iew.lsq.thread0.squashedLoads         2240                       # Number of loads squashed
system.cpu0.iew.lsq.thread0.ignoredResponses            3                       # Number of memory responses ignored because the instruction is squashed
system.cpu0.iew.lsq.thread0.memOrderViolation           22                       # Number of memory ordering violations
system.cpu0.iew.lsq.thread0.squashedStores         1872                       # Number of stores squashed
system.cpu0.iew.lsq.thread0.invAddrSwpfs            0                       # Number of software prefetches ignored due to an invalid address
system.cpu0.iew.lsq.thread0.blockedLoads            0                       # Number of blocked loads due to partial load-store forwarding
system.cpu0.iew.lsq.thread0.rescheduledLoads            0                       # Number of loads that were rescheduled
system.cpu0.iew.lsq.thread0.cacheBlocked           10                       # Number of times an access to memory failed due to the cache being blocked
system.cpu0.iew.iewIdleCycles                       0                       # Number of cycles IEW is idle
system.cpu0.iew.iewSquashCycles                   264                       # Number of cycles IEW is squashing
system.cpu0.iew.iewBlockCycles               17048145                       # Number of cycles IEW is blocking
system.cpu0.iew.iewUnblockCycles               118677                       # Number of cycles IEW is unblocking
system.cpu0.iew.iewDispatchedInsts           28081389                       # Number of instructions dispatched to IQ
system.cpu0.iew.iewDispSquashedInsts                5                       # Number of squashed instructions skipped by dispatch
system.cpu0.iew.iewDispLoadInsts              3323442                       # Number of dispatched load instructions
system.cpu0.iew.iewDispStoreInsts             2105773                       # Number of dispatched store instructions
system.cpu0.iew.iewDispNonSpecInsts                19                       # Number of dispatched non-speculative instructions
system.cpu0.iew.iewIQFullEvents                 87318                       # Number of times the IQ has become full, causing a stall
system.cpu0.iew.iewLSQFullEvents                    0                       # Number of times the LSQ has become full, causing a stall
system.cpu0.iew.memOrderViolationEvents            22                       # Number of memory order violations
system.cpu0.iew.predictedTakenIncorrect           206                       # Number of branches that were predicted taken incorrectly
system.cpu0.iew.predictedNotTakenIncorrect           46                       # Number of branches that were predicted not taken incorrectly
system.cpu0.iew.branchMispredicts                 252                       # Number of branch mispredicts detected at execute
system.cpu0.iew.iewExecutedInsts             28074796                       # Number of executed instructions
system.cpu0.iew.iewExecLoadInsts              3322872                       # Number of load instructions executed
system.cpu0.iew.iewExecSquashedInsts              385                       # Number of squashed instructions skipped in execute
system.cpu0.iew.exec_swp                            0                       # number of swp insts executed
system.cpu0.iew.exec_nop                            0                       # number of nop insts executed
system.cpu0.iew.exec_refs                     5427891                       # number of memory reference insts executed
system.cpu0.iew.exec_branches                 3299643                       # Number of branches executed
system.cpu0.iew.exec_stores                   2105019                       # Number of stores executed
system.cpu0.iew.exec_rate                    0.919439                       # Inst execution rate
system.cpu0.iew.wb_sent                      28074564                       # cumulative count of insts sent to commit
system.cpu0.iew.wb_count                     28074420                       # cumulative count of insts written-back
system.cpu0.iew.wb_producers                 20625037                       # num instructions producing a value
system.cpu0.iew.wb_consumers                 36551094                       # num instructions consuming a value
system.cpu0.iew.wb_rate                      0.919427                       # insts written-back per cycle
system.cpu0.iew.wb_fanout                    0.564280                       # average fanout of values written-back
system.cpu0.commit.commitSquashedInsts          19997                       # The number of squashed insts skipped by commit
system.cpu0.commit.commitNonSpecStalls              3                       # The number of times commit has been forced to stall to communicate backwards
system.cpu0.commit.branchMispredicts              242                       # The number of times a branch was mispredicted
system.cpu0.commit.committed_per_cycle::samples     30531934                       # Number of insts commited each cycle
system.cpu0.commit.committed_per_cycle::mean     0.919085                       # Number of insts commited each cycle
system.cpu0.commit.committed_per_cycle::stdev     2.417786                       # Number of insts commited each cycle
system.cpu0.commit.committed_per_cycle::underflows            0      0.00%      0.00% # Number of insts commited each cycle
system.cpu0.commit.committed_per_cycle::0     26171015     85.72%     85.72% # Number of insts commited each cycle
system.cpu0.commit.committed_per_cycle::1       246932      0.81%     86.53% # Number of insts commited each cycle
system.cpu0.commit.committed_per_cycle::2       127783      0.42%     86.94% # Number of insts commited each cycle
system.cpu0.commit.committed_per_cycle::3       477641      1.56%     88.51% # Number of insts commited each cycle
system.cpu0.commit.committed_per_cycle::4       251537      0.82%     89.33% # Number of insts commited each cycle
system.cpu0.commit.committed_per_cycle::5        58882      0.19%     89.53% # Number of insts commited each cycle
system.cpu0.commit.committed_per_cycle::6       215806      0.71%     90.23% # Number of insts commited each cycle
system.cpu0.commit.committed_per_cycle::7       328069      1.07%     91.31% # Number of insts commited each cycle
system.cpu0.commit.committed_per_cycle::8      2654269      8.69%    100.00% # Number of insts commited each cycle
system.cpu0.commit.committed_per_cycle::overflows            0      0.00%    100.00% # Number of insts commited each cycle
system.cpu0.commit.committed_per_cycle::min_value            0                       # Number of insts commited each cycle
system.cpu0.commit.committed_per_cycle::max_value            8                       # Number of insts commited each cycle
system.cpu0.commit.committed_per_cycle::total     30531934                       # Number of insts commited each cycle
system.cpu0.commit.committedInsts            13428585                       # Number of instructions committed
system.cpu0.commit.committedOps              28061450                       # Number of ops (including micro ops) committed
system.cpu0.commit.swp_count                        0                       # Number of s/w prefetches committed
system.cpu0.commit.refs                       5425102                       # Number of memory references committed
system.cpu0.commit.loads                      3321199                       # Number of loads committed
system.cpu0.commit.membars                          2                       # Number of memory barriers committed
system.cpu0.commit.branches                   3298731                       # Number of branches committed
system.cpu0.commit.vec_insts                        0                       # Number of committed Vector instructions.
system.cpu0.commit.fp_insts                         0                       # Number of committed floating point instructions.
system.cpu0.commit.int_insts                 28061356                       # Number of committed integer instructions.
system.cpu0.commit.function_calls              243404                       # Number of function calls committed.
system.cpu0.commit.op_class_0::No_OpClass           92      0.00%      0.00% # Class of committed instruction
system.cpu0.commit.op_class_0::IntAlu        22636256     80.67%     80.67% # Class of committed instruction
system.cpu0.commit.op_class_0::IntMult              0      0.00%     80.67% # Class of committed instruction
system.cpu0.commit.op_class_0::IntDiv               0      0.00%     80.67% # Class of committed instruction
system.cpu0.commit.op_class_0::FloatAdd             0      0.00%     80.67% # Class of committed instruction
system.cpu0.commit.op_class_0::FloatCmp             0      0.00%     80.67% # Class of committed instruction
system.cpu0.commit.op_class_0::FloatCvt             0      0.00%     80.67% # Class of committed instruction
system.cpu0.commit.op_class_0::FloatMult            0      0.00%     80.67% # Class of committed instruction
system.cpu0.commit.op_class_0::FloatMultAcc            0      0.00%     80.67% # Class of committed instruction
system.cpu0.commit.op_class_0::FloatDiv             0      0.00%     80.67% # Class of committed instruction
system.cpu0.commit.op_class_0::FloatMisc            0      0.00%     80.67% # Class of committed instruction
system.cpu0.commit.op_class_0::FloatSqrt            0      0.00%     80.67% # Class of committed instruction
system.cpu0.commit.op_class_0::SimdAdd              0      0.00%     80.67% # Class of committed instruction
system.cpu0.commit.op_class_0::SimdAddAcc            0      0.00%     80.67% # Class of committed instruction
system.cpu0.commit.op_class_0::SimdAlu              0      0.00%     80.67% # Class of committed instruction
system.cpu0.commit.op_class_0::SimdCmp              0      0.00%     80.67% # Class of committed instruction
system.cpu0.commit.op_class_0::SimdCvt              0      0.00%     80.67% # Class of committed instruction
system.cpu0.commit.op_class_0::SimdMisc             0      0.00%     80.67% # Class of committed instruction
system.cpu0.commit.op_class_0::SimdMult             0      0.00%     80.67% # Class of committed instruction
system.cpu0.commit.op_class_0::SimdMultAcc            0      0.00%     80.67% # Class of committed instruction
system.cpu0.commit.op_class_0::SimdShift            0      0.00%     80.67% # Class of committed instruction
system.cpu0.commit.op_class_0::SimdShiftAcc            0      0.00%     80.67% # Class of committed instruction
system.cpu0.commit.op_class_0::SimdSqrt             0      0.00%     80.67% # Class of committed instruction
system.cpu0.commit.op_class_0::SimdFloatAdd            0      0.00%     80.67% # Class of committed instruction
system.cpu0.commit.op_class_0::SimdFloatAlu            0      0.00%     80.67% # Class of committed instruction
system.cpu0.commit.op_class_0::SimdFloatCmp            0      0.00%     80.67% # Class of committed instruction
system.cpu0.commit.op_class_0::SimdFloatCvt            0      0.00%     80.67% # Class of committed instruction
system.cpu0.commit.op_class_0::SimdFloatDiv            0      0.00%     80.67% # Class of committed instruction
system.cpu0.commit.op_class_0::SimdFloatMisc            0      0.00%     80.67% # Class of committed instruction
system.cpu0.commit.op_class_0::SimdFloatMult            0      0.00%     80.67% # Class of committed instruction
system.cpu0.commit.op_class_0::SimdFloatMultAcc            0      0.00%     80.67% # Class of committed instruction
system.cpu0.commit.op_class_0::SimdFloatSqrt            0      0.00%     80.67% # Class of committed instruction
system.cpu0.commit.op_class_0::MemRead        3321199     11.84%     92.50% # Class of committed instruction
system.cpu0.commit.op_class_0::MemWrite       2103903      7.50%    100.00% # Class of committed instruction
system.cpu0.commit.op_class_0::FloatMemRead            0      0.00%    100.00% # Class of committed instruction
system.cpu0.commit.op_class_0::FloatMemWrite            0      0.00%    100.00% # Class of committed instruction
system.cpu0.commit.op_class_0::IprAccess            0      0.00%    100.00% # Class of committed instruction
system.cpu0.commit.op_class_0::InstPrefetch            0      0.00%    100.00% # Class of committed instruction
system.cpu0.commit.op_class_0::total         28061450                       # Class of committed instruction
system.cpu0.commit.bw_lim_events              2654269                       # number cycles where commit BW limit reached
system.cpu0.rob.rob_reads                    55959112                       # The number of ROB reads
system.cpu0.rob.rob_writes                   56165517                       # The number of ROB writes
system.cpu0.timesIdled                              1                       # Number of times that the entire CPU went into an idle state and unscheduled itself
system.cpu0.idleCycles                             75                       # Total number of cycles that the CPU has spent unscheduled due to idling
system.cpu0.committedInsts                   13428585                       # Number of Instructions Simulated
system.cpu0.committedOps                     28061450                       # Number of Ops (including micro ops) Simulated
system.cpu0.cpi                              2.273857                       # CPI: Cycles Per Instruction
system.cpu0.cpi_total                        2.273857                       # CPI: Total CPI of All Threads
system.cpu0.ipc                              0.439781                       # IPC: Instructions Per Cycle
system.cpu0.ipc_total                        0.439781                       # IPC: Total IPC of All Threads
system.cpu0.int_regfile_reads                42012688                       # number of integer regfile reads
system.cpu0.int_regfile_writes               22669564                       # number of integer regfile writes
system.cpu0.cc_regfile_reads                 18609403                       # number of cc regfile reads
system.cpu0.cc_regfile_writes                 8437752                       # number of cc regfile writes
system.cpu0.misc_regfile_reads               12150396                       # number of misc regfile reads
system.cpu0.dcache.tags.pwrStateResidencyTicks::UNDEFINED  15267344125                       # Cumulative time (in ticks) in various power states
system.cpu0.dcache.tags.replacements           240378                       # number of replacements
system.cpu0.dcache.tags.tagsinuse                1024                       # Cycle average of tags in use
system.cpu0.dcache.tags.total_refs            7217763                       # Total number of references to valid blocks.
system.cpu0.dcache.tags.sampled_refs           240378                       # Sample count of references to valid blocks.
system.cpu0.dcache.tags.avg_refs            30.026720                       # Average number of references to valid blocks.
system.cpu0.dcache.tags.warmup_cycle                0                       # Cycle when the warmup percentage was hit.
system.cpu0.dcache.tags.occ_blocks::cpu0.data         1024                       # Average occupied blocks per requestor
system.cpu0.dcache.tags.occ_percent::cpu0.data            1                       # Average percentage of cache occupancy
system.cpu0.dcache.tags.occ_percent::total            1                       # Average percentage of cache occupancy
system.cpu0.dcache.tags.occ_task_id_blocks::1024         1024                       # Occupied blocks per task id
system.cpu0.dcache.tags.age_task_id_blocks_1024::0          144                       # Occupied blocks per task id
system.cpu0.dcache.tags.age_task_id_blocks_1024::1          879                       # Occupied blocks per task id
system.cpu0.dcache.tags.age_task_id_blocks_1024::3            1                       # Occupied blocks per task id
system.cpu0.dcache.tags.occ_task_id_percent::1024            1                       # Percentage of cache occupancy per task id
system.cpu0.dcache.tags.tag_accesses         18032934                       # Number of tag accesses
system.cpu0.dcache.tags.data_accesses        18032934                       # Number of data accesses
system.cpu0.dcache.pwrStateResidencyTicks::UNDEFINED  15267344125                       # Cumulative time (in ticks) in various power states
system.cpu0.dcache.ReadReq_hits::cpu0.data      1887464                       # number of ReadReq hits
system.cpu0.dcache.ReadReq_hits::total        1887464                       # number of ReadReq hits
system.cpu0.dcache.WriteReq_hits::cpu0.data      2103902                       # number of WriteReq hits
system.cpu0.dcache.WriteReq_hits::total       2103902                       # number of WriteReq hits
system.cpu0.dcache.demand_hits::cpu0.data      3991366                       # number of demand (read+write) hits
system.cpu0.dcache.demand_hits::total         3991366                       # number of demand (read+write) hits
system.cpu0.dcache.overall_hits::cpu0.data      3991366                       # number of overall hits
system.cpu0.dcache.overall_hits::total        3991366                       # number of overall hits
system.cpu0.dcache.ReadReq_misses::cpu0.data       456772                       # number of ReadReq misses
system.cpu0.dcache.ReadReq_misses::total       456772                       # number of ReadReq misses
system.cpu0.dcache.WriteReq_misses::cpu0.data            1                       # number of WriteReq misses
system.cpu0.dcache.WriteReq_misses::total            1                       # number of WriteReq misses
system.cpu0.dcache.demand_misses::cpu0.data       456773                       # number of demand (read+write) misses
system.cpu0.dcache.demand_misses::total        456773                       # number of demand (read+write) misses
system.cpu0.dcache.overall_misses::cpu0.data       456773                       # number of overall misses
system.cpu0.dcache.overall_misses::total       456773                       # number of overall misses
system.cpu0.dcache.ReadReq_miss_latency::cpu0.data  38335391500                       # number of ReadReq miss cycles
system.cpu0.dcache.ReadReq_miss_latency::total  38335391500                       # number of ReadReq miss cycles
system.cpu0.dcache.WriteReq_miss_latency::cpu0.data       106500                       # number of WriteReq miss cycles
system.cpu0.dcache.WriteReq_miss_latency::total       106500                       # number of WriteReq miss cycles
system.cpu0.dcache.demand_miss_latency::cpu0.data  38335498000                       # number of demand (read+write) miss cycles
system.cpu0.dcache.demand_miss_latency::total  38335498000                       # number of demand (read+write) miss cycles
system.cpu0.dcache.overall_miss_latency::cpu0.data  38335498000                       # number of overall miss cycles
system.cpu0.dcache.overall_miss_latency::total  38335498000                       # number of overall miss cycles
system.cpu0.dcache.ReadReq_accesses::cpu0.data      2344236                       # number of ReadReq accesses(hits+misses)
system.cpu0.dcache.ReadReq_accesses::total      2344236                       # number of ReadReq accesses(hits+misses)
system.cpu0.dcache.WriteReq_accesses::cpu0.data      2103903                       # number of WriteReq accesses(hits+misses)
system.cpu0.dcache.WriteReq_accesses::total      2103903                       # number of WriteReq accesses(hits+misses)
system.cpu0.dcache.demand_accesses::cpu0.data      4448139                       # number of demand (read+write) accesses
system.cpu0.dcache.demand_accesses::total      4448139                       # number of demand (read+write) accesses
system.cpu0.dcache.overall_accesses::cpu0.data      4448139                       # number of overall (read+write) accesses
system.cpu0.dcache.overall_accesses::total      4448139                       # number of overall (read+write) accesses
system.cpu0.dcache.ReadReq_miss_rate::cpu0.data     0.194849                       # miss rate for ReadReq accesses
system.cpu0.dcache.ReadReq_miss_rate::total     0.194849                       # miss rate for ReadReq accesses
system.cpu0.dcache.WriteReq_miss_rate::cpu0.data     0.000000                       # miss rate for WriteReq accesses
system.cpu0.dcache.WriteReq_miss_rate::total     0.000000                       # miss rate for WriteReq accesses
system.cpu0.dcache.demand_miss_rate::cpu0.data     0.102689                       # miss rate for demand accesses
system.cpu0.dcache.demand_miss_rate::total     0.102689                       # miss rate for demand accesses
system.cpu0.dcache.overall_miss_rate::cpu0.data     0.102689                       # miss rate for overall accesses
system.cpu0.dcache.overall_miss_rate::total     0.102689                       # miss rate for overall accesses
[...]
system.l2.ReadSharedReq_miss_rate::cpu0.data     0.850326                       # miss rate for ReadSharedReq accesses
system.l2.ReadSharedReq_miss_rate::total     0.850326                       # miss rate for ReadSharedReq accesses
system.l2.demand_miss_rate::cpu0.inst               1                       # miss rate for demand accesses
system.l2.demand_miss_rate::cpu0.data        0.850327                       # miss rate for demand accesses
system.l2.demand_miss_rate::total            0.850329                       # miss rate for demand accesses
system.l2.overall_miss_rate::cpu0.inst              1                       # miss rate for overall accesses
system.l2.overall_miss_rate::cpu0.data       0.850327                       # miss rate for overall accesses
system.l2.overall_miss_rate::total           0.850329                       # miss rate for overall accesses
system.l2.ReadExReq_avg_miss_latency::cpu0.data       104000                       # average ReadExReq miss latency
system.l2.ReadExReq_avg_miss_latency::total       104000                       # average ReadExReq miss latency
system.l2.ReadCleanReq_avg_miss_latency::cpu0.inst 101666.666667                       # average ReadCleanReq miss latency
system.l2.ReadCleanReq_avg_miss_latency::total 101666.666667                       # average ReadCleanReq miss latency
system.l2.ReadSharedReq_avg_miss_latency::cpu0.data 97651.608626                       # average ReadSharedReq miss latency
system.l2.ReadSharedReq_avg_miss_latency::total 97651.608626                       # average ReadSharedReq miss latency
system.l2.demand_avg_miss_latency::cpu0.inst 101666.666667                       # average overall miss latency
system.l2.demand_avg_miss_latency::cpu0.data 97651.639685                       # average overall miss latency
system.l2.demand_avg_miss_latency::total 97651.698614                       # average overall miss latency
system.l2.overall_avg_miss_latency::cpu0.inst 101666.666667                       # average overall miss latency
system.l2.overall_avg_miss_latency::cpu0.data 97651.639685                       # average overall miss latency
system.l2.overall_avg_miss_latency::total 97651.698614                       # average overall miss latency
system.l2.blocked_cycles::no_mshrs                  0                       # number of cycles access was blocked
system.l2.blocked_cycles::no_targets                0                       # number of cycles access was blocked
system.l2.blocked::no_mshrs                         0                       # number of cycles access was blocked
system.l2.blocked::no_targets                       0                       # number of cycles access was blocked
system.l2.avg_blocked_cycles::no_mshrs            nan                       # average number of cycles each access was blocked
system.l2.avg_blocked_cycles::no_targets          nan                       # average number of cycles each access was blocked
system.l2.writebacks::writebacks               137184                       # number of writebacks
system.l2.writebacks::total                    137184                       # number of writebacks
system.l2.CleanEvict_mshr_misses::writebacks            4                       # number of CleanEvict MSHR misses
system.l2.CleanEvict_mshr_misses::total             4                       # number of CleanEvict MSHR misses
system.l2.ReadExReq_mshr_misses::cpu0.data            1                       # number of ReadExReq MSHR misses
system.l2.ReadExReq_mshr_misses::total              1                       # number of ReadExReq MSHR misses
system.l2.ReadCleanReq_mshr_misses::cpu0.inst            3                       # number of ReadCleanReq MSHR misses
system.l2.ReadCleanReq_mshr_misses::total            3                       # number of ReadCleanReq MSHR misses
system.l2.ReadSharedReq_mshr_misses::cpu0.data       204398                       # number of ReadSharedReq MSHR misses
system.l2.ReadSharedReq_mshr_misses::total       204398                       # number of ReadSharedReq MSHR misses
system.l2.demand_mshr_misses::cpu0.inst             3                       # number of demand (read+write) MSHR misses
system.l2.demand_mshr_misses::cpu0.data        204399                       # number of demand (read+write) MSHR misses
system.l2.demand_mshr_misses::total            204402                       # number of demand (read+write) MSHR misses
system.l2.overall_mshr_misses::cpu0.inst            3                       # number of overall MSHR misses
system.l2.overall_mshr_misses::cpu0.data       204399                       # number of overall MSHR misses
system.l2.overall_mshr_misses::total           204402                       # number of overall MSHR misses
system.l2.ReadExReq_mshr_miss_latency::cpu0.data        94000                       # number of ReadExReq MSHR miss cycles
system.l2.ReadExReq_mshr_miss_latency::total        94000                       # number of ReadExReq MSHR miss cycles
system.l2.ReadCleanReq_mshr_miss_latency::cpu0.inst       275000                       # number of ReadCleanReq MSHR miss cycles
system.l2.ReadCleanReq_mshr_miss_latency::total       275000                       # number of ReadCleanReq MSHR miss cycles
system.l2.ReadSharedReq_mshr_miss_latency::cpu0.data  17915803500                       # number of ReadSharedReq MSHR miss cycles
system.l2.ReadSharedReq_mshr_miss_latency::total  17915803500                       # number of ReadSharedReq MSHR miss cycles
system.l2.demand_mshr_miss_latency::cpu0.inst       275000                       # number of demand (read+write) MSHR miss cycles
system.l2.demand_mshr_miss_latency::cpu0.data  17915897500                       # number of demand (read+write) MSHR miss cycles
system.l2.demand_mshr_miss_latency::total  17916172500                       # number of demand (read+write) MSHR miss cycles
system.l2.overall_mshr_miss_latency::cpu0.inst       275000                       # number of overall MSHR miss cycles
system.l2.overall_mshr_miss_latency::cpu0.data  17915897500                       # number of overall MSHR miss cycles
system.l2.overall_mshr_miss_latency::total  17916172500                       # number of overall MSHR miss cycles
system.l2.CleanEvict_mshr_miss_rate::writebacks          inf                       # mshr miss rate for CleanEvict accesses
system.l2.CleanEvict_mshr_miss_rate::total          inf                       # mshr miss rate for CleanEvict accesses
system.l2.ReadExReq_mshr_miss_rate::cpu0.data            1                       # mshr miss rate for ReadExReq accesses
system.l2.ReadExReq_mshr_miss_rate::total            1                       # mshr miss rate for ReadExReq accesses
system.l2.ReadCleanReq_mshr_miss_rate::cpu0.inst            1                       # mshr miss rate for ReadCleanReq accesses
system.l2.ReadCleanReq_mshr_miss_rate::total            1                       # mshr miss rate for ReadCleanReq accesses
system.l2.ReadSharedReq_mshr_miss_rate::cpu0.data     0.850326                       # mshr miss rate for ReadSharedReq accesses
system.l2.ReadSharedReq_mshr_miss_rate::total     0.850326                       # mshr miss rate for ReadSharedReq accesses
system.l2.demand_mshr_miss_rate::cpu0.inst            1                       # mshr miss rate for demand accesses
system.l2.demand_mshr_miss_rate::cpu0.data     0.850327                       # mshr miss rate for demand accesses
system.l2.demand_mshr_miss_rate::total       0.850329                       # mshr miss rate for demand accesses
system.l2.overall_mshr_miss_rate::cpu0.inst            1                       # mshr miss rate for overall accesses
system.l2.overall_mshr_miss_rate::cpu0.data     0.850327                       # mshr miss rate for overall accesses
system.l2.overall_mshr_miss_rate::total      0.850329                       # mshr miss rate for overall accesses
system.l2.ReadExReq_avg_mshr_miss_latency::cpu0.data        94000                       # average ReadExReq mshr miss latency
system.l2.ReadExReq_avg_mshr_miss_latency::total        94000                       # average ReadExReq mshr miss latency
system.l2.ReadCleanReq_avg_mshr_miss_latency::cpu0.inst 91666.666667                       # average ReadCleanReq mshr miss latency
system.l2.ReadCleanReq_avg_mshr_miss_latency::total 91666.666667                       # average ReadCleanReq mshr miss latency
system.l2.ReadSharedReq_avg_mshr_miss_latency::cpu0.data 87651.559702                       # average ReadSharedReq mshr miss latency
system.l2.ReadSharedReq_avg_mshr_miss_latency::total 87651.559702                       # average ReadSharedReq mshr miss latency
system.l2.demand_avg_mshr_miss_latency::cpu0.inst 91666.666667                       # average overall mshr miss latency
system.l2.demand_avg_mshr_miss_latency::cpu0.data 87651.590761                       # average overall mshr miss latency
system.l2.demand_avg_mshr_miss_latency::total 87651.649690                       # average overall mshr miss latency
system.l2.overall_avg_mshr_miss_latency::cpu0.inst 91666.666667                       # average overall mshr miss latency
system.l2.overall_avg_mshr_miss_latency::cpu0.data 87651.590761                       # average overall mshr miss latency
system.l2.overall_avg_mshr_miss_latency::total 87651.649690                       # average overall mshr miss latency
system.membus.snoop_filter.tot_requests        408816                       # Total number of requests made to the snoop filter.
system.membus.snoop_filter.hit_single_requests       204414                       # Number of requests hitting in the snoop filter with a single holder of the requested data.
system.membus.snoop_filter.hit_multi_requests            0                       # Number of requests hitting in the snoop filter with multiple (>1) holders of the requested data.
system.membus.snoop_filter.tot_snoops               0                       # Total number of snoops made to the snoop filter.
system.membus.snoop_filter.hit_single_snoops            0                       # Number of snoops hitting in the snoop filter with a single holder of the requested data.
system.membus.snoop_filter.hit_multi_snoops            0                       # Number of snoops hitting in the snoop filter with multiple (>1) holders of the requested data.
system.membus.pwrStateResidencyTicks::UNDEFINED  15267344125                       # Cumulative time (in ticks) in various power states
system.membus.trans_dist::ReadResp             204402                       # Transaction distribution
system.membus.trans_dist::WritebackDirty       137184                       # Transaction distribution
system.membus.trans_dist::CleanEvict            67230                       # Transaction distribution
system.membus.trans_dist::ReadExReq                 1                       # Transaction distribution
system.membus.trans_dist::ReadExResp                1                       # Transaction distribution
system.membus.trans_dist::ReadSharedReq        204401                       # Transaction distribution
system.membus.pkt_count_system.l2.mem_side::system.mem_ctrls.port       613219                       # Packet count per connected master and slave (bytes)
system.membus.pkt_count_system.l2.mem_side::total       613219                       # Packet count per connected master and slave (bytes)
system.membus.pkt_count::total                 613219                       # Packet count per connected master and slave (bytes)
system.membus.pkt_size_system.l2.mem_side::system.mem_ctrls.port     21861568                       # Cumulative packet size per connected master and slave (bytes)
system.membus.pkt_size_system.l2.mem_side::total     21861568                       # Cumulative packet size per connected master and slave (bytes)
system.membus.pkt_size::total                21861568                       # Cumulative packet size per connected master and slave (bytes)
system.membus.snoops                                0                       # Total snoops (count)
system.membus.snoopTraffic                          0                       # Total snoop traffic (bytes)
system.membus.snoop_fanout::samples            204402                       # Request fanout histogram
system.membus.snoop_fanout::mean                    0                       # Request fanout histogram
system.membus.snoop_fanout::stdev                   0                       # Request fanout histogram
system.membus.snoop_fanout::underflows              0      0.00%      0.00% # Request fanout histogram
system.membus.snoop_fanout::0                  204402    100.00%    100.00% # Request fanout histogram
system.membus.snoop_fanout::1                       0      0.00%    100.00% # Request fanout histogram
system.membus.snoop_fanout::overflows               0      0.00%    100.00% # Request fanout histogram
system.membus.snoop_fanout::min_value               0                       # Request fanout histogram
system.membus.snoop_fanout::max_value               0                       # Request fanout histogram
system.membus.snoop_fanout::total              204402                       # Request fanout histogram
system.membus.reqLayer8.occupancy           979997500                       # Layer occupancy (ticks)
system.membus.reqLayer8.utilization               6.4                       # Layer utilization (%)
system.membus.respLayer1.occupancy         1083197500                       # Layer occupancy (ticks)
system.membus.respLayer1.utilization              7.1                       # Layer utilization (%)
system.tol2bus.snoop_filter.tot_requests       480761                       # Total number of requests made to the snoop filter.
system.tol2bus.snoop_filter.hit_single_requests       240381                       # Number of requests hitting in the snoop filter with a single holder of the requested data.
system.tol2bus.snoop_filter.hit_multi_requests            1                       # Number of requests hitting in the snoop filter with multiple (>1) holders of the requested data.
system.tol2bus.snoop_filter.tot_snoops              1                       # Total number of snoops made to the snoop filter.
system.tol2bus.snoop_filter.hit_single_snoops            1                       # Number of snoops hitting in the snoop filter with a single holder of the requested data.
system.tol2bus.snoop_filter.hit_multi_snoops            0                       # Number of snoops hitting in the snoop filter with multiple (>1) holders of the requested data.
system.tol2bus.pwrStateResidencyTicks::UNDEFINED  15267344125                       # Cumulative time (in ticks) in various power states
system.tol2bus.trans_dist::ReadResp            240380                       # Transaction distribution
system.tol2bus.trans_dist::WritebackDirty       294804                       # Transaction distribution
system.tol2bus.trans_dist::WritebackClean            3                       # Transaction distribution
system.tol2bus.trans_dist::CleanEvict          149985                       # Transaction distribution
system.tol2bus.trans_dist::ReadExReq                1                       # Transaction distribution
system.tol2bus.trans_dist::ReadExResp               1                       # Transaction distribution
system.tol2bus.trans_dist::ReadCleanReq             3                       # Transaction distribution
system.tol2bus.trans_dist::ReadSharedReq       240376                       # Transaction distribution
system.tol2bus.pkt_count_system.cpu0.icache.mem_side::system.l2.cpu_side            9                       # Packet count per connected master and slave (bytes)
system.tol2bus.pkt_count_system.cpu0.dcache.mem_side::system.l2.cpu_side       721133                       # Packet count per connected master and slave (bytes)
system.tol2bus.pkt_count::total                721142                       # Packet count per connected master and slave (bytes)
system.tol2bus.pkt_size_system.cpu0.icache.mem_side::system.l2.cpu_side          384                       # Cumulative packet size per connected master and slave (bytes)
system.tol2bus.pkt_size_system.cpu0.dcache.mem_side::system.l2.cpu_side     25471872                       # Cumulative packet size per connected master and slave (bytes)
system.tol2bus.pkt_size::total               25472256                       # Cumulative packet size per connected master and slave (bytes)
system.tol2bus.snoops                          204411                       # Total snoops (count)
system.tol2bus.snoopTraffic                   8779776                       # Total snoop traffic (bytes)
system.tol2bus.snoop_fanout::samples           444791                       # Request fanout histogram
system.tol2bus.snoop_fanout::mean            0.000004                       # Request fanout histogram
system.tol2bus.snoop_fanout::stdev           0.002120                       # Request fanout histogram
system.tol2bus.snoop_fanout::underflows             0      0.00%      0.00% # Request fanout histogram
system.tol2bus.snoop_fanout::0                 444789    100.00%    100.00% # Request fanout histogram
system.tol2bus.snoop_fanout::1                      2      0.00%    100.00% # Request fanout histogram
system.tol2bus.snoop_fanout::2                      0      0.00%    100.00% # Request fanout histogram
system.tol2bus.snoop_fanout::3                      0      0.00%    100.00% # Request fanout histogram
system.tol2bus.snoop_fanout::4                      0      0.00%    100.00% # Request fanout histogram
system.tol2bus.snoop_fanout::5                      0      0.00%    100.00% # Request fanout histogram
system.tol2bus.snoop_fanout::6                      0      0.00%    100.00% # Request fanout histogram
system.tol2bus.snoop_fanout::7                      0      0.00%    100.00% # Request fanout histogram
system.tol2bus.snoop_fanout::8                      0      0.00%    100.00% # Request fanout histogram
system.tol2bus.snoop_fanout::9                      0      0.00%    100.00% # Request fanout histogram
system.tol2bus.snoop_fanout::10                     0      0.00%    100.00% # Request fanout histogram
system.tol2bus.snoop_fanout::11                     0      0.00%    100.00% # Request fanout histogram
system.tol2bus.snoop_fanout::12                     0      0.00%    100.00% # Request fanout histogram
system.tol2bus.snoop_fanout::13                     0      0.00%    100.00% # Request fanout histogram
system.tol2bus.snoop_fanout::14                     0      0.00%    100.00% # Request fanout histogram
system.tol2bus.snoop_fanout::15                     0      0.00%    100.00% # Request fanout histogram
system.tol2bus.snoop_fanout::16                     0      0.00%    100.00% # Request fanout histogram
system.tol2bus.snoop_fanout::overflows              0      0.00%    100.00% # Request fanout histogram
system.tol2bus.snoop_fanout::min_value              0                       # Request fanout histogram
system.tol2bus.snoop_fanout::max_value              1                       # Request fanout histogram
system.tol2bus.snoop_fanout::total             444791                       # Request fanout histogram
system.tol2bus.reqLayer0.occupancy          398003500                       # Layer occupancy (ticks)
system.tol2bus.reqLayer0.utilization              2.6                       # Layer utilization (%)
system.tol2bus.respLayer0.occupancy              4999                       # Layer occupancy (ticks)
system.tol2bus.respLayer0.utilization             0.0                       # Layer utilization (%)
system.tol2bus.respLayer1.occupancy         360567000                       # Layer occupancy (ticks)
system.tol2bus.respLayer1.utilization             2.4                       # Layer utilization (%)

---------- End Simulation Statistics   ----------
