
---------- Begin Simulation Statistics ----------
sim_seconds                                  0.015267                       # Number of seconds simulated
sim_ticks                                 15267344125                       # Number of ticks simulated
final_tick                               1618338477250                       # Number of ticks from beginning of simulation (restored from checkpoints and never reset)
sim_freq                                 1000000000000                       # Frequency of simulated ticks
host_inst_rate                               13562194                       # Simulator instruction rate (inst/s)
host_op_rate                                 24709020                       # Simulator op (including micro ops) rate (op/s)
host_tick_rate                               56693292                       # Simulator tick rate (ticks/s)
host_mem_usage                                2332060                       # Number of bytes of host memory used
host_seconds                                   269.30                       # Real time elapsed on the host
sim_insts                                  3652260272                       # Number of instructions simulated
sim_ops                                    6654069104                       # Number of ops (including micro ops) simulated
system.voltage_domain.voltage                       1                       # Voltage in Volts
system.clk_domain.clock                          1000                       # Clock period in ticks
system.mem_ctrls.pwrStateResidencyTicks::UNDEFINED  15267344125                       # Cumulative time (in ticks) in various power states
system.mem_ctrls.bytes_read::cpu0.data         913792                       # Number of bytes read from this memory
system.mem_ctrls.bytes_read::total             913792                       # Number of bytes read from this memory
system.mem_ctrls.bytes_written::writebacks       863936                       # Number of bytes written to this memory
system.mem_ctrls.bytes_written::total          863936                       # Number of bytes written to this memory
system.mem_ctrls.num_reads::cpu0.data           14278                       # Number of read requests responded to by this memory
system.mem_ctrls.num_reads::total               14278                       # Number of read requests responded to by this memory
system.mem_ctrls.num_writes::writebacks         13499                       # Number of write requests responded to by this memory
system.mem_ctrls.num_writes::total              13499                       # Number of write requests responded to by this memory
system.mem_ctrls.bw_read::cpu0.data          59852715                       # Total read bandwidth from this memory (bytes/s)
system.mem_ctrls.bw_read::total              59852715                       # Total read bandwidth from this memory (bytes/s)
system.mem_ctrls.bw_write::writebacks        56587183                       # Write bandwidth from this memory (bytes/s)
system.mem_ctrls.bw_write::total             56587183                       # Write bandwidth from this memory (bytes/s)
system.mem_ctrls.bw_total::writebacks        56587183                       # Total bandwidth to/from this memory (bytes/s)
system.mem_ctrls.bw_total::cpu0.data         59852715                       # Total bandwidth to/from this memory (bytes/s)
system.mem_ctrls.bw_total::total            116439898                       # Total bandwidth to/from this memory (bytes/s)
system.mem_ctrls.readReqs                       14278                       # Number of read requests accepted
system.mem_ctrls.writeReqs                      13499                       # Number of write requests accepted
system.mem_ctrls.readBursts                     14278                       # Number of DRAM read bursts, including those serviced by the write queue
system.mem_ctrls.writeBursts                    13499                       # Number of DRAM write bursts, including those merged in the write queue
system.mem_ctrls.bytesReadDRAM                 913792                       # Total number of bytes read from DRAM
system.mem_ctrls.bytesReadWrQ                       0                       # Total number of bytes read from write queue
system.mem_ctrls.bytesWritten                  863744                       # Total number of bytes written to DRAM
system.mem_ctrls.bytesReadSys                  913792                       # Total read bytes from the system interface side
system.mem_ctrls.bytesWrittenSys               863936                       # Total written bytes from the system interface side
system.mem_ctrls.servicedByWrQ                      0                       # Number of DRAM read bursts serviced by the write queue
system.mem_ctrls.mergedWrBursts                     0                       # Number of DRAM write bursts merged with an existing one
system.mem_ctrls.neitherReadNorWriteReqs            0                       # Number of requests that are neither read nor write
system.mem_ctrls.perBankRdBursts::0               793                       # Per bank write bursts
system.mem_ctrls.perBankRdBursts::1               770                       # Per bank write bursts
system.mem_ctrls.perBankRdBursts::2               769                       # Per bank write bursts
system.mem_ctrls.perBankRdBursts::3               768                       # Per bank write bursts
system.mem_ctrls.perBankRdBursts::4               768                       # Per bank write bursts
system.mem_ctrls.perBankRdBursts::5               791                       # Per bank write bursts
system.mem_ctrls.perBankRdBursts::6               791                       # Per bank write bursts
system.mem_ctrls.perBankRdBursts::7               914                       # Per bank write bursts
system.mem_ctrls.perBankRdBursts::8              1027                       # Per bank write bursts
system.mem_ctrls.perBankRdBursts::9              1134                       # Per bank write bursts
system.mem_ctrls.perBankRdBursts::10             1024                       # Per bank write bursts
system.mem_ctrls.perBankRdBursts::11             1047                       # Per bank write bursts
system.mem_ctrls.perBankRdBursts::12             1024                       # Per bank write bursts
system.mem_ctrls.perBankRdBursts::13              963                       # Per bank write bursts
system.mem_ctrls.perBankRdBursts::14              896                       # Per bank write bursts
system.mem_ctrls.perBankRdBursts::15              799                       # Per bank write bursts
system.mem_ctrls.perBankWrBursts::0               770                       # Per bank write bursts
system.mem_ctrls.perBankWrBursts::1               770                       # Per bank write bursts
system.mem_ctrls.perBankWrBursts::2               769                       # Per bank write bursts
system.mem_ctrls.perBankWrBursts::3               768                       # Per bank write bursts
system.mem_ctrls.perBankWrBursts::4               640                       # Per bank write bursts
system.mem_ctrls.perBankWrBursts::5               720                       # Per bank write bursts
system.mem_ctrls.perBankWrBursts::6               646                       # Per bank write bursts
system.mem_ctrls.perBankWrBursts::7               776                       # Per bank write bursts
system.mem_ctrls.perBankWrBursts::8               912                       # Per bank write bursts
system.mem_ctrls.perBankWrBursts::9              1050                       # Per bank write bursts
system.mem_ctrls.perBankWrBursts::10             1019                       # Per bank write bursts
system.mem_ctrls.perBankWrBursts::11              984                       # Per bank write bursts
system.mem_ctrls.perBankWrBursts::12             1024                       # Per bank write bursts
system.mem_ctrls.perBankWrBursts::13              962                       # Per bank write bursts
system.mem_ctrls.perBankWrBursts::14              896                       # Per bank write bursts
system.mem_ctrls.perBankWrBursts::15              790                       # Per bank write bursts
system.mem_ctrls.numRdRetry                         0                       # Number of times read queue was full causing retry
system.mem_ctrls.numWrRetry                         0                       # Number of times write queue was full causing retry
system.mem_ctrls.totGap                   15267471000                       # Total gap between requests
system.mem_ctrls.readPktSize::0                     0                       # Read request sizes (log2)
system.mem_ctrls.readPktSize::1                     0                       # Read request sizes (log2)
system.mem_ctrls.readPktSize::2                     0                       # Read request sizes (log2)
system.mem_ctrls.readPktSize::3                     0                       # Read request sizes (log2)
system.mem_ctrls.readPktSize::4                     0                       # Read request sizes (log2)
system.mem_ctrls.readPktSize::5                     0                       # Read request sizes (log2)
system.mem_ctrls.readPktSize::6                 14278                       # Read request sizes (log2)
system.mem_ctrls.writePktSize::0                    0                       # Write request sizes (log2)
system.mem_ctrls.writePktSize::1                    0                       # Write request sizes (log2)
system.mem_ctrls.writePktSize::2                    0                       # Write request sizes (log2)
system.mem_ctrls.writePktSize::3                    0                       # Write request sizes (log2)
system.mem_ctrls.writePktSize::4                    0                       # Write request sizes (log2)
system.mem_ctrls.writePktSize::5                    0                       # Write request sizes (log2)
system.mem_ctrls.writePktSize::6                13499                       # Write request sizes (log2)
system.mem_ctrls.rdQLenPdf::0                   14278                       # What read queue length does an incoming req see
system.mem_ctrls.rdQLenPdf::1                       0                       # What read queue length does an incoming req see
system.mem_ctrls.rdQLenPdf::2                       0                       # What read queue length does an incoming req see
system.mem_ctrls.rdQLenPdf::3                       0                       # What read queue length does an incoming req see
system.mem_ctrls.rdQLenPdf::4                       0                       # What read queue length does an incoming req see
system.mem_ctrls.rdQLenPdf::5                       0                       # What read queue length does an incoming req see
system.mem_ctrls.rdQLenPdf::6                       0                       # What read queue length does an incoming req see
system.mem_ctrls.rdQLenPdf::7                       0                       # What read queue length does an incoming req see
system.mem_ctrls.rdQLenPdf::8                       0                       # What read queue length does an incoming req see
system.mem_ctrls.rdQLenPdf::9                       0                       # What read queue length does an incoming req see
system.mem_ctrls.rdQLenPdf::10                      0                       # What read queue length does an incoming req see
system.mem_ctrls.rdQLenPdf::11                      0                       # What read queue length does an incoming req see
system.mem_ctrls.rdQLenPdf::12                      0                       # What read queue length does an incoming req see
system.mem_ctrls.rdQLenPdf::13                      0                       # What read queue length does an incoming req see
system.mem_ctrls.rdQLenPdf::14                      0                       # What read queue length does an incoming req see
system.mem_ctrls.rdQLenPdf::15                      0                       # What read queue length does an incoming req see
system.mem_ctrls.rdQLenPdf::16                      0                       # What read queue length does an incoming req see
system.mem_ctrls.rdQLenPdf::17                      0                       # What read queue length does an incoming req see
system.mem_ctrls.rdQLenPdf::18                      0                       # What read queue length does an incoming req see
system.mem_ctrls.rdQLenPdf::19                      0                       # What read queue length does an incoming req see
system.mem_ctrls.rdQLenPdf::20                      0                       # What read queue length does an incoming req see
system.mem_ctrls.rdQLenPdf::21                      0                       # What read queue length does an incoming req see
system.mem_ctrls.rdQLenPdf::22                      0                       # What read queue length does an incoming req see
system.mem_ctrls.rdQLenPdf::23                      0                       # What read queue length does an incoming req see
system.mem_ctrls.rdQLenPdf::24                      0                       # What read queue length does an incoming req see
system.mem_ctrls.rdQLenPdf::25                      0                       # What read queue length does an incoming req see
system.mem_ctrls.rdQLenPdf::26                      0                       # What read queue length does an incoming req see
system.mem_ctrls.rdQLenPdf::27                      0                       # What read queue length does an incoming req see
system.mem_ctrls.rdQLenPdf::28                      0                       # What read queue length does an incoming req see
system.mem_ctrls.rdQLenPdf::29                      0                       # What read queue length does an incoming req see
system.mem_ctrls.rdQLenPdf::30                      0                       # What read queue length does an incoming req see
system.mem_ctrls.rdQLenPdf::31                      0                       # What read queue length does an incoming req see
system.mem_ctrls.wrQLenPdf::0                       0                       # What write queue length does an incoming req see
system.mem_ctrls.wrQLenPdf::1                       0                       # What write queue length does an incoming req see
system.mem_ctrls.wrQLenPdf::2                       0                       # What write queue length does an incoming req see
system.mem_ctrls.wrQLenPdf::3                       0                       # What write queue length does an incoming req see
system.mem_ctrls.wrQLenPdf::4                       0                       # What write queue length does an incoming req see
system.mem_ctrls.wrQLenPdf::5                       0                       # What write queue length does an incoming req see
system.mem_ctrls.wrQLenPdf::6                       0                       # What write queue length does an incoming req see
system.mem_ctrls.wrQLenPdf::7                       0                       # What write queue length does an incoming req see
system.mem_ctrls.wrQLenPdf::8                       0                       # What write queue length does an incoming req see
system.mem_ctrls.wrQLenPdf::9                       0                       # What write queue length does an incoming req see
system.mem_ctrls.wrQLenPdf::10                      0                       # What write queue length does an incoming req see
system.mem_ctrls.wrQLenPdf::11                      0                       # What write queue length does an incoming req see
system.mem_ctrls.wrQLenPdf::12                      0                       # What write queue length does an incoming req see
system.mem_ctrls.wrQLenPdf::13                      0                       # What write queue length does an incoming req see
system.mem_ctrls.wrQLenPdf::14                      0                       # What write queue length does an incoming req see
system.mem_ctrls.wrQLenPdf::15                    732                       # What write queue length does an incoming req see
system.mem_ctrls.wrQLenPdf::16                    732                       # What write queue length does an incoming req see
system.mem_ctrls.wrQLenPdf::17                    752                       # What write queue length does an incoming req see
system.mem_ctrls.wrQLenPdf::18                    752                       # What write queue length does an incoming req see
system.mem_ctrls.wrQLenPdf::19                    752                       # What write queue length does an incoming req see
system.mem_ctrls.wrQLenPdf::20                    752                       # What write queue length does an incoming req see
system.mem_ctrls.wrQLenPdf::21                    752                       # What write queue length does an incoming req see
system.mem_ctrls.wrQLenPdf::22                    753                       # What write queue length does an incoming req see
system.mem_ctrls.wrQLenPdf::23                    753                       # What write queue length does an incoming req see
system.mem_ctrls.wrQLenPdf::24                    753                       # What write queue length does an incoming req see
system.mem_ctrls.wrQLenPdf::25                    752                       # What write queue length does an incoming req see
system.mem_ctrls.wrQLenPdf::26                    752                       # What write queue length does an incoming req see
system.mem_ctrls.wrQLenPdf::27                    752                       # What write queue length does an incoming req see
system.mem_ctrls.wrQLenPdf::28                    752                       # What write queue length does an incoming req see
system.mem_ctrls.wrQLenPdf::29                    752                       # What write queue length does an incoming req see
system.mem_ctrls.wrQLenPdf::30                    752                       # What write queue length does an incoming req see
system.mem_ctrls.wrQLenPdf::31                    752                       # What write queue length does an incoming req see
system.mem_ctrls.wrQLenPdf::32                    752                       # What write queue length does an incoming req see
system.mem_ctrls.wrQLenPdf::33                      0                       # What write queue length does an incoming req see
system.mem_ctrls.wrQLenPdf::34                      0                       # What write queue length does an incoming req see
system.mem_ctrls.wrQLenPdf::35                      0                       # What write queue length does an incoming req see
system.mem_ctrls.wrQLenPdf::36                      0                       # What write queue length does an incoming req see
system.mem_ctrls.wrQLenPdf::37                      0                       # What write queue length does an incoming req see
system.mem_ctrls.wrQLenPdf::38                      0                       # What write queue length does an incoming req see
system.mem_ctrls.wrQLenPdf::39                      0                       # What write queue length does an incoming req see
system.mem_ctrls.wrQLenPdf::40                      0                       # What write queue length does an incoming req see
system.mem_ctrls.wrQLenPdf::41                      0                       # What write queue length does an incoming req see
system.mem_ctrls.wrQLenPdf::42                      0                       # What write queue length does an incoming req see
system.mem_ctrls.wrQLenPdf::43                      0                       # What write queue length does an incoming req see
system.mem_ctrls.wrQLenPdf::44                      0                       # What write queue length does an incoming req see
system.mem_ctrls.wrQLenPdf::45                      0                       # What write queue length does an incoming req see
system.mem_ctrls.wrQLenPdf::46                      0                       # What write queue length does an incoming req see
system.mem_ctrls.wrQLenPdf::47                      0                       # What write queue length does an incoming req see
system.mem_ctrls.wrQLenPdf::48                      0                       # What write queue length does an incoming req see
system.mem_ctrls.wrQLenPdf::49                      0                       # What write queue length does an incoming req see
system.mem_ctrls.wrQLenPdf::50                      0                       # What write queue length does an incoming req see
system.mem_ctrls.wrQLenPdf::51                      0                       # What write queue length does an incoming req see
system.mem_ctrls.wrQLenPdf::52                      0                       # What write queue length does an incoming req see
system.mem_ctrls.wrQLenPdf::53                      0                       # What write queue length does an incoming req see
system.mem_ctrls.wrQLenPdf::54                      0                       # What write queue length does an incoming req see
system.mem_ctrls.wrQLenPdf::55                      0                       # What write queue length does an incoming req see
system.mem_ctrls.wrQLenPdf::56                      0                       # What write queue length does an incoming req see
system.mem_ctrls.wrQLenPdf::57                      0                       # What write queue length does an incoming req see
system.mem_ctrls.wrQLenPdf::58                      0                       # What write queue length does an incoming req see
system.mem_ctrls.wrQLenPdf::59                      0                       # What write queue length does an incoming req see
system.mem_ctrls.wrQLenPdf::60                      0                       # What write queue length does an incoming req see
system.mem_ctrls.wrQLenPdf::61                      0                       # What write queue length does an incoming req see
system.mem_ctrls.wrQLenPdf::62                      0                       # What write queue length does an incoming req see
system.mem_ctrls.wrQLenPdf::63                      0                       # What write queue length does an incoming req see
system.mem_ctrls.bytesPerActivate::samples         6020                       # Bytes accessed per row activation
system.mem_ctrls.bytesPerActivate::mean    295.303654                       # Bytes accessed per row activation
system.mem_ctrls.bytesPerActivate::gmean   182.637529                       # Bytes accessed per row activation
system.mem_ctrls.bytesPerActivate::stdev   292.063675                       # Bytes accessed per row activation
system.mem_ctrls.bytesPerActivate::0-127         2431     40.38%     40.38% # Bytes accessed per row activation
system.mem_ctrls.bytesPerActivate::128-255          803     13.34%     53.72% # Bytes accessed per row activation
system.mem_ctrls.bytesPerActivate::256-383          588      9.77%     63.49% # Bytes accessed per row activation
system.mem_ctrls.bytesPerActivate::384-511         1436     23.85%     87.34% # Bytes accessed per row activation
system.mem_ctrls.bytesPerActivate::512-639           41      0.68%     88.02% # Bytes accessed per row activation
system.mem_ctrls.bytesPerActivate::640-767           53      0.88%     88.90% # Bytes accessed per row activation
system.mem_ctrls.bytesPerActivate::768-895           43      0.71%     89.62% # Bytes accessed per row activation
system.mem_ctrls.bytesPerActivate::896-1023          101      1.68%     91.30% # Bytes accessed per row activation
system.mem_ctrls.bytesPerActivate::1024-1151          524      8.70%    100.00% # Bytes accessed per row activation
system.mem_ctrls.bytesPerActivate::total         6020                       # Bytes accessed per row activation
system.mem_ctrls.rdPerTurnAround::samples          752                       # Reads before turning the bus around for writes
system.mem_ctrls.rdPerTurnAround::mean      18.982713                       # Reads before turning the bus around for writes
system.mem_ctrls.rdPerTurnAround::gmean     18.414292                       # Reads before turning the bus around for writes
system.mem_ctrls.rdPerTurnAround::stdev      9.143244                       # Reads before turning the bus around for writes
system.mem_ctrls.rdPerTurnAround::16-23           734     97.61%     97.61% # Reads before turning the bus around for writes
system.mem_ctrls.rdPerTurnAround::24-31             9      1.20%     98.80% # Reads before turning the bus around for writes
system.mem_ctrls.rdPerTurnAround::40-47             1      0.13%     98.94% # Reads before turning the bus around for writes
system.mem_ctrls.rdPerTurnAround::48-55             1      0.13%     99.07% # Reads before turning the bus around for writes
system.mem_ctrls.rdPerTurnAround::56-63             1      0.13%     99.20% # Reads before turning the bus around for writes
system.mem_ctrls.rdPerTurnAround::64-71             1      0.13%     99.34% # Reads before turning the bus around for writes
system.mem_ctrls.rdPerTurnAround::72-79             1      0.13%     99.47% # Reads before turning the bus around for writes
system.mem_ctrls.rdPerTurnAround::112-119            1      0.13%     99.60% # Reads before turning the bus around for writes
system.mem_ctrls.rdPerTurnAround::120-127            1      0.13%     99.73% # Reads before turning the bus around for writes
system.mem_ctrls.rdPerTurnAround::128-135            1      0.13%     99.87% # Reads before turning the bus around for writes
system.mem_ctrls.rdPerTurnAround::160-167            1      0.13%    100.00% # Reads before turning the bus around for writes
system.mem_ctrls.rdPerTurnAround::total           752                       # Reads before turning the bus around for writes
system.mem_ctrls.wrPerTurnAround::samples          752                       # Writes before turning the bus around for reads
system.mem_ctrls.wrPerTurnAround::mean      17.946809                       # Writes before turning the bus around for reads
system.mem_ctrls.wrPerTurnAround::gmean     17.943703                       # Writes before turning the bus around for reads
system.mem_ctrls.wrPerTurnAround::stdev      0.322012                       # Writes before turning the bus around for reads
system.mem_ctrls.wrPerTurnAround::16               20      2.66%      2.66% # Writes before turning the bus around for reads
system.mem_ctrls.wrPerTurnAround::18              732     97.34%    100.00% # Writes before turning the bus around for reads
system.mem_ctrls.wrPerTurnAround::total           752                       # Writes before turning the bus around for reads
system.mem_ctrls.totQLat                    352828250                       # Total ticks spent queuing
system.mem_ctrls.totMemAccLat               620540750                       # Total ticks spent from burst creation until serviced by the DRAM
system.mem_ctrls.totBusLat                   71390000                       # Total ticks spent in databus transfers
system.mem_ctrls.avgQLat                     24711.32                       # Average queueing delay per DRAM burst
system.mem_ctrls.avgBusLat                    5000.00                       # Average bus latency per DRAM burst
system.mem_ctrls.avgMemAccLat                43461.32                       # Average memory access latency per DRAM burst
system.mem_ctrls.avgRdBW                        59.85                       # Average DRAM read bandwidth in MiByte/s
system.mem_ctrls.avgWrBW                        56.57                       # Average achieved write bandwidth in MiByte/s
system.mem_ctrls.avgRdBWSys                     59.85                       # Average system read bandwidth in MiByte/s
system.mem_ctrls.avgWrBWSys                     56.59                       # Average system write bandwidth in MiByte/s
system.mem_ctrls.peakBW                      12800.00                       # Theoretical peak bandwidth in MiByte/s
system.mem_ctrls.busUtil                         0.91                       # Data bus utilization in percentage
system.mem_ctrls.busUtilRead                     0.47                       # Data bus utilization in percentage for reads
system.mem_ctrls.busUtilWrite                    0.44                       # Data bus utilization in percentage for writes
system.mem_ctrls.avgRdQLen                       1.00                       # Average read queue length when enqueuing
system.mem_ctrls.avgWrQLen                      24.59                       # Average write queue length when enqueuing
system.mem_ctrls.readRowHits                    10364                       # Number of row buffer hits during reads
system.mem_ctrls.writeRowHits                   11391                       # Number of row buffer hits during writes
system.mem_ctrls.readRowHitRate                 72.59                       # Row buffer hit rate for reads
system.mem_ctrls.writeRowHitRate                84.38                       # Row buffer hit rate for writes
system.mem_ctrls.avgGap                     549644.35                       # Average gap between requests
system.mem_ctrls.pageHitRate                    78.32                       # Row buffer hit rate, read and write combined
system.mem_ctrls_0.actEnergy                 15843660                       # Energy for activate commands per rank (pJ)
system.mem_ctrls_0.preEnergy                  8424900                       # Energy for precharge commands per rank (pJ)
system.mem_ctrls_0.readEnergy                45438960                       # Energy for read commands per rank (pJ)
system.mem_ctrls_0.writeEnergy               30583980                       # Energy for write commands per rank (pJ)
system.mem_ctrls_0.refreshEnergy         1060254000.000000                       # Energy for refresh commands per rank (pJ)
system.mem_ctrls_0.actBackEnergy            497765610                       # Energy for active background per rank (pJ)
system.mem_ctrls_0.preBackEnergy             62414400                       # Energy for precharge background per rank (pJ)
system.mem_ctrls_0.actPowerDownEnergy      3038278980                       # Energy for active power-down per rank (pJ)
system.mem_ctrls_0.prePowerDownEnergy      1179430080                       # Energy for precharge power-down per rank (pJ)
system.mem_ctrls_0.selfRefreshEnergy       1213038480                       # Energy for self refresh per rank (pJ)
system.mem_ctrls_0.totalEnergy             7151529060                       # Total energy per rank (pJ)
system.mem_ctrls_0.averagePower            468.419982                       # Core power per rank (mW)
system.mem_ctrls_0.totalIdleTime          14010961625                       # Total Idle time Per DRAM Rank
system.mem_ctrls_0.memoryStateTime::IDLE    114049250                       # Time in different power states
system.mem_ctrls_0.memoryStateTime::REF     450576000                       # Time in different power states
system.mem_ctrls_0.memoryStateTime::SREF   4278777000                       # Time in different power states
system.mem_ctrls_0.memoryStateTime::PRE_PDN   3071464000                       # Time in different power states
system.mem_ctrls_0.memoryStateTime::ACT     689456250                       # Time in different power states
system.mem_ctrls_0.memoryStateTime::ACT_PDN   6663021625                       # Time in different power states
system.mem_ctrls_1.actEnergy                 27132000                       # Energy for activate commands per rank (pJ)
system.mem_ctrls_1.preEnergy                 14421000                       # Energy for precharge commands per rank (pJ)
system.mem_ctrls_1.readEnergy                56505960                       # Energy for read commands per rank (pJ)
system.mem_ctrls_1.writeEnergy               39865140                       # Energy for write commands per rank (pJ)
system.mem_ctrls_1.refreshEnergy         1282139040.000000                       # Energy for refresh commands per rank (pJ)
system.mem_ctrls_1.actBackEnergy            817712880                       # Energy for active background per rank (pJ)
system.mem_ctrls_1.preBackEnergy             55532160                       # Energy for precharge background per rank (pJ)
system.mem_ctrls_1.actPowerDownEnergy      3889226280                       # Energy for active power-down per rank (pJ)
system.mem_ctrls_1.prePowerDownEnergy      1358990400                       # Energy for precharge power-down per rank (pJ)
system.mem_ctrls_1.selfRefreshEnergy        472839420                       # Energy for self refresh per rank (pJ)
system.mem_ctrls_1.totalEnergy             8014720140                       # Total energy per rank (pJ)
system.mem_ctrls_1.averagePower            524.958374                       # Core power per rank (mW)
system.mem_ctrls_1.totalIdleTime          13328600375                       # Total Idle time Per DRAM Rank
system.mem_ctrls_1.memoryStateTime::IDLE     90730000                       # Time in different power states
system.mem_ctrls_1.memoryStateTime::REF     544226000                       # Time in different power states
system.mem_ctrls_1.memoryStateTime::SREF   1260658500                       # Time in different power states
system.mem_ctrls_1.memoryStateTime::PRE_PDN   3539049750                       # Time in different power states
system.mem_ctrls_1.memoryStateTime::ACT    1303532000                       # Time in different power states
system.mem_ctrls_1.memoryStateTime::ACT_PDN   8529147875                       # Time in different power states
system.pwrStateResidencyTicks::UNDEFINED  15267344125                       # Cumulative time (in ticks) in various power states
system.cpu0.branchPred.lookups                5269951                       # Number of BP lookups
system.cpu0.branchPred.condPredicted          5269951                       # Number of conditional branches predicted
system.cpu0.branchPred.condIncorrect           109377                       # Number of conditional branches incorrect
system.cpu0.branchPred.BTBLookups             4471472                       # Number of BTB lookups
system.cpu0.branchPred.BTBHits                      0                       # Number of BTB hits
system.cpu0.branchPred.BTBCorrect                   0                       # Number of correct BTB predictions (this stat may not work properly.
system.cpu0.branchPred.BTBHitPct             0.000000                       # BTB Hit Percentage
system.cpu0.branchPred.usedRAS                 733613                       # Number of times the RAS was used to get a target.
system.cpu0.branchPred.RASInCorrect                29                       # Number of incorrect RAS predictions.
system.cpu0.branchPred.indirectLookups        4471472                       # Number of indirect predictor lookups.
system.cpu0.branchPred.indirectHits           2577571                       # Number of indirect target hits.
system.cpu0.branchPred.indirectMisses         1893901                       # Number of indirect misses.
system.cpu0.branchPredindirectMispredicted           43                       # Number of mispredicted indirect branches.
system.cpu_voltage_domain.voltage                   1                       # Voltage in Volts
system.cpu_clk_domain.clock                       500                       # Clock period in ticks
system.cpu0.dtb.walker.pwrStateResidencyTicks::UNDEFINED  15267344125                       # Cumulative time (in ticks) in various power states
system.cpu0.dtb.rdAccesses                    8914355                       # TLB accesses on read requests
system.cpu0.dtb.wrAccesses                    2105264                       # TLB accesses on write requests
system.cpu0.dtb.rdMisses                          272                       # TLB misses on read requests
system.cpu0.dtb.wrMisses                            0                       # TLB misses on write requests
system.cpu0.apic_clk_domain.clock                8000                       # Clock period in ticks
system.cpu0.interrupts.pwrStateResidencyTicks::UNDEFINED  15267344125                       # Cumulative time (in ticks) in various power states
system.cpu0.itb.walker.pwrStateResidencyTicks::UNDEFINED  15267344125                       # Cumulative time (in ticks) in various power states
system.cpu0.itb.rdAccesses                          0                       # TLB accesses on read requests
system.cpu0.itb.wrAccesses                    6283971                       # TLB accesses on write requests
system.cpu0.itb.rdMisses                            0                       # TLB misses on read requests
system.cpu0.itb.wrMisses                            8                       # TLB misses on write requests
system.cpu0.workload.numSyscalls                    0                       # Number of system calls
system.cpu0.pwrStateResidencyTicks::ON    15267344125                       # Cumulative time (in ticks) in various power states
system.cpu0.numCycles                        30534688                       # number of cpu cycles simulated
system.cpu0.numWorkItemsStarted                     0                       # number of work items this cpu started
system.cpu0.numWorkItemsCompleted                   0                       # number of work items this cpu completed
system.cpu0.fetch.icacheStallCycles           6363582                       # Number of cycles fetch is stalled on an Icache miss
system.cpu0.fetch.Insts                      46460840                       # Number of instructions fetch has processed
system.cpu0.fetch.Branches                    5269951                       # Number of branches that fetch encountered
system.cpu0.fetch.predictedBranches           3311184                       # Number of branches that fetch has predicted taken
system.cpu0.fetch.Cycles                     24061571                       # Number of cycles fetch has run and was not squashing or blocked
system.cpu0.fetch.SquashCycles                 218974                       # Number of cycles fetch has spent squashing
system.cpu0.fetch.MiscStallCycles                   4                       # Number of cycles fetch has spent waiting on interrupts, or bad addresses, or out of MSHRs
system.cpu0.fetch.PendingTrapStallCycles           44                       # Number of stall cycles due to pending traps
system.cpu0.fetch.CacheLines                  6283963                       # Number of cache lines fetched
system.cpu0.fetch.IcacheSquashes                29717                       # Number of outstanding Icache misses that were squashed
system.cpu0.fetch.rateDist::samples          30534688                       # Number of instructions fetched each cycle (Total)
system.cpu0.fetch.rateDist::mean             2.658956                       # Number of instructions fetched each cycle (Total)
system.cpu0.fetch.rateDist::stdev            3.353761                       # Number of instructions fetched each cycle (Total)
system.cpu0.fetch.rateDist::underflows              0      0.00%      0.00% # Number of instructions fetched each cycle (Total)
system.cpu0.fetch.rateDist::0                16687356     54.65%     54.65% # Number of instructions fetched each cycle (Total)
system.cpu0.fetch.rateDist::1                  663489      2.17%     56.82% # Number of instructions fetched each cycle (Total)
system.cpu0.fetch.rateDist::2                 1687045      5.53%     62.35% # Number of instructions fetched each cycle (Total)
system.cpu0.fetch.rateDist::3                  721968      2.36%     64.71% # Number of instructions fetched each cycle (Total)
system.cpu0.fetch.rateDist::4                 1084747      3.55%     68.27% # Number of instructions fetched each cycle (Total)
system.cpu0.fetch.rateDist::5                 1631047      5.34%     73.61% # Number of instructions fetched each cycle (Total)
system.cpu0.fetch.rateDist::6                  600558      1.97%     75.57% # Number of instructions fetched each cycle (Total)
system.cpu0.fetch.rateDist::7                  778476      2.55%     78.12% # Number of instructions fetched each cycle (Total)
system.cpu0.fetch.rateDist::8                 6680002     21.88%    100.00% # Number of instructions fetched each cycle (Total)
system.cpu0.fetch.rateDist::overflows               0      0.00%    100.00% # Number of instructions fetched each cycle (Total)
system.cpu0.fetch.rateDist::min_value               0                       # Number of instructions fetched each cycle (Total)
system.cpu0.fetch.rateDist::max_value               8                       # Number of instructions fetched each cycle (Total)
system.cpu0.fetch.rateDist::total            30534688                       # Number of instructions fetched each cycle (Total)
system.cpu0.fetch.branchRate                 0.172589                       # Number of branch fetches per cycle
system.cpu0.fetch.rate                       1.521576                       # Number of inst fetches per cycle
system.cpu0.decode.IdleCycles                 4124915                       # Number of cycles decode is idle
system.cpu0.decode.BlockedCycles             15715618                       # Number of cycles decode is blocked
system.cpu0.decode.RunCycles                  6177329                       # Number of cycles decode is running
system.cpu0.decode.UnblockCycles              4407339                       # Number of cycles decode is unblocking
system.cpu0.decode.SquashCycles                109487                       # Number of cycles decode is squashing
system.cpu0.decode.DecodedInsts              77817309                       # Number of instructions handled by decode
system.cpu0.rename.SquashCycles                109487                       # Number of cycles rename is squashing
system.cpu0.rename.IdleCycles                 5826616                       # Number of cycles rename is idle
system.cpu0.rename.BlockCycles                5676083                       # Number of cycles rename is blocking
system.cpu0.rename.serializeStallCycles             1                       # count of cycles rename stalled for serializing inst
system.cpu0.rename.RunCycles                  8823557                       # Number of cycles rename is running
system.cpu0.rename.UnblockCycles             10098944                       # Number of cycles rename is unblocking
system.cpu0.rename.RenamedInsts              77118341                       # Number of instructions processed by rename
system.cpu0.rename.ROBFullEvents               220234                       # Number of times rename has blocked due to ROB full
system.cpu0.rename.IQFullEvents               9041778                       # Number of times rename has blocked due to IQ full
system.cpu0.rename.RenamedOperands           82894664                       # Number of destination operands rename has renamed
system.cpu0.rename.RenameLookups            183281464                       # Number of register rename lookups that rename has made
system.cpu0.rename.int_rename_lookups        60358868                       # Number of integer rename lookups
system.cpu0.rename.fp_rename_lookups         75148855                       # Number of floating rename lookups
system.cpu0.rename.CommittedMaps             70631204                       # Number of HB maps that are committed
system.cpu0.rename.UndoneMaps                12263479                       # Number of HB maps that are undone due to squashing
system.cpu0.rename.serializingInsts                 1                       # count of serializing insts renamed
system.cpu0.rename.tempSerializingInsts             1                       # count of temporary serializing insts renamed
system.cpu0.rename.skidInsts                 23307476                       # count of insts added to the skid buffer
system.cpu0.memDep0.insertedLoads             9501538                       # Number of loads inserted to the mem dependence unit.
system.cpu0.memDep0.insertedStores            2110971                       # Number of stores inserted to the mem dependence unit.
system.cpu0.memDep0.conflictingLoads           426404                       # Number of conflicting loads.
system.cpu0.memDep0.conflictingStores          184722                       # Number of conflicting stores.
system.cpu0.iq.iqInstsAdded                  76529913                       # Number of instructions added to the IQ (excludes non-spec)
system.cpu0.iq.iqInstsIssued                 70874846                       # Number of instructions issued
system.cpu0.iq.iqSquashedInstsIssued              402                       # Number of squashed instructions issued
system.cpu0.iq.iqSquashedInstsExamined       10514800                       # Number of squashed instructions iterated over during squash; mainly for profiling
system.cpu0.iq.iqSquashedOperandsExamined     15258278                       # Number of squashed operands that are examined and possibly removed from graph
system.cpu0.iq.issued_per_cycle::samples     30534688                       # Number of insts issued each cycle
system.cpu0.iq.issued_per_cycle::mean        2.321126                       # Number of insts issued each cycle
system.cpu0.iq.issued_per_cycle::stdev       1.963785                       # Number of insts issued each cycle
system.cpu0.iq.issued_per_cycle::underflows            0      0.00%      0.00% # Number of insts issued each cycle
system.cpu0.iq.issued_per_cycle::0            6410196     20.99%     20.99% # Number of insts issued each cycle
system.cpu0.iq.issued_per_cycle::1            5964227     19.53%     40.53% # Number of insts issued each cycle
system.cpu0.iq.issued_per_cycle::2            5675036     18.59%     59.11% # Number of insts issued each cycle
system.cpu0.iq.issued_per_cycle::3            4915788     16.10%     75.21% # Number of insts issued each cycle
system.cpu0.iq.issued_per_cycle::4            3000285      9.83%     85.04% # Number of insts issued each cycle
system.cpu0.iq.issued_per_cycle::5            1990536      6.52%     91.56% # Number of insts issued each cycle
system.cpu0.iq.issued_per_cycle::6            1551379      5.08%     96.64% # Number of insts issued each cycle
system.cpu0.iq.issued_per_cycle::7             666839      2.18%     98.82% # Number of insts issued each cycle
system.cpu0.iq.issued_per_cycle::8             360402      1.18%    100.00% # Number of insts issued each cycle
system.cpu0.iq.issued_per_cycle::overflows            0      0.00%    100.00% # Number of insts issued each cycle
system.cpu0.iq.issued_per_cycle::min_value            0                       # Number of insts issued each cycle
system.cpu0.iq.issued_per_cycle::max_value            8                       # Number of insts issued each cycle
system.cpu0.iq.issued_per_cycle::total       30534688                       # Number of insts issued each cycle
system.cpu0.iq.fu_full::No_OpClass                  0      0.00%      0.00% # attempts to use FU when none available
system.cpu0.iq.fu_full::IntAlu                   1106      1.05%      1.05% # attempts to use FU when none available
system.cpu0.iq.fu_full::IntMult                     0      0.00%      1.05% # attempts to use FU when none available
system.cpu0.iq.fu_full::IntDiv                      0      0.00%      1.05% # attempts to use FU when none available
system.cpu0.iq.fu_full::FloatAdd               103631     98.15%     99.19% # attempts to use FU when none available
system.cpu0.iq.fu_full::FloatCmp                    0      0.00%     99.19% # attempts to use FU when none available
system.cpu0.iq.fu_full::FloatCvt                    0      0.00%     99.19% # attempts to use FU when none available
system.cpu0.iq.fu_full::FloatMult                   0      0.00%     99.19% # attempts to use FU when none available
system.cpu0.iq.fu_full::FloatMultAcc                0      0.00%     99.19% # attempts to use FU when none available
system.cpu0.iq.fu_full::FloatDiv                    0      0.00%     99.19% # attempts to use FU when none available
system.cpu0.iq.fu_full::FloatMisc                   0      0.00%     99.19% # attempts to use FU when none available
system.cpu0.iq.fu_full::FloatSqrt                   0      0.00%     99.19% # attempts to use FU when none available
system.cpu0.iq.fu_full::SimdAdd                     0      0.00%     99.19% # attempts to use FU when none available
system.cpu0.iq.fu_full::SimdAddAcc                  0      0.00%     99.19% # attempts to use FU when none available
system.cpu0.iq.fu_full::SimdAlu                     0      0.00%     99.19% # attempts to use FU when none available
system.cpu0.iq.fu_full::SimdCmp                     0      0.00%     99.19% # attempts to use FU when none available
system.cpu0.iq.fu_full::SimdCvt                     0      0.00%     99.19% # attempts to use FU when none available
system.cpu0.iq.fu_full::SimdMisc                    0      0.00%     99.19% # attempts to use FU when none available
system.cpu0.iq.fu_full::SimdMult                    0      0.00%     99.19% # attempts to use FU when none available
system.cpu0.iq.fu_full::SimdMultAcc                 0      0.00%     99.19% # attempts to use FU when none available
system.cpu0.iq.fu_full::SimdShift                   0      0.00%     99.19% # attempts to use FU when none available
system.cpu0.iq.fu_full::SimdShiftAcc                0      0.00%     99.19% # attempts to use FU when none available
system.cpu0.iq.fu_full::SimdSqrt                    0      0.00%     99.19% # attempts to use FU when none available
system.cpu0.iq.fu_full::SimdFloatAdd                0      0.00%     99.19% # attempts to use FU when none available
system.cpu0.iq.fu_full::SimdFloatAlu                0      0.00%     99.19% # attempts to use FU when none available
system.cpu0.iq.fu_full::SimdFloatCmp                0      0.00%     99.19% # attempts to use FU when none available
system.cpu0.iq.fu_full::SimdFloatCvt                0      0.00%     99.19% # attempts to use FU when none available
system.cpu0.iq.fu_full::SimdFloatDiv                0      0.00%     99.19% # attempts to use FU when none available
system.cpu0.iq.fu_full::SimdFloatMisc               0      0.00%     99.19% # attempts to use FU when none available
system.cpu0.iq.fu_full::SimdFloatMult               0      0.00%     99.19% # attempts to use FU when none available
system.cpu0.iq.fu_full::SimdFloatMultAcc            0      0.00%     99.19% # attempts to use FU when none available
system.cpu0.iq.fu_full::SimdFloatSqrt               0      0.00%     99.19% # attempts to use FU when none available
system.cpu0.iq.fu_full::MemRead                   367      0.35%     99.54% # attempts to use FU when none available
system.cpu0.iq.fu_full::MemWrite                   96      0.09%     99.63% # attempts to use FU when none available
system.cpu0.iq.fu_full::FloatMemRead                0      0.00%     99.63% # attempts to use FU when none available
system.cpu0.iq.fu_full::FloatMemWrite             388      0.37%    100.00% # attempts to use FU when none available
system.cpu0.iq.fu_full::IprAccess                   0      0.00%    100.00% # attempts to use FU when none available
system.cpu0.iq.fu_full::InstPrefetch                0      0.00%    100.00% # attempts to use FU when none available
system.cpu0.iq.FU_type_0::No_OpClass             7124      0.01%      0.01% # Type of FU issued
system.cpu0.iq.FU_type_0::IntAlu             36872028     52.02%     52.03% # Type of FU issued
system.cpu0.iq.FU_type_0::IntMult                   0      0.00%     52.03% # Type of FU issued
system.cpu0.iq.FU_type_0::IntDiv                    0      0.00%     52.03% # Type of FU issued
system.cpu0.iq.FU_type_0::FloatAdd           22999040     32.45%     84.48% # Type of FU issued
system.cpu0.iq.FU_type_0::FloatCmp                  0      0.00%     84.48% # Type of FU issued
system.cpu0.iq.FU_type_0::FloatCvt                  0      0.00%     84.48% # Type of FU issued
system.cpu0.iq.FU_type_0::FloatMult                 0      0.00%     84.48% # Type of FU issued
system.cpu0.iq.FU_type_0::FloatMultAcc              0      0.00%     84.48% # Type of FU issued
system.cpu0.iq.FU_type_0::FloatDiv                  0      0.00%     84.48% # Type of FU issued
system.cpu0.iq.FU_type_0::FloatMisc                 0      0.00%     84.48% # Type of FU issued
system.cpu0.iq.FU_type_0::FloatSqrt                 0      0.00%     84.48% # Type of FU issued
system.cpu0.iq.FU_type_0::SimdAdd                   0      0.00%     84.48% # Type of FU issued
system.cpu0.iq.FU_type_0::SimdAddAcc                0      0.00%     84.48% # Type of FU issued
system.cpu0.iq.FU_type_0::SimdAlu                   0      0.00%     84.48% # Type of FU issued
system.cpu0.iq.FU_type_0::SimdCmp                   0      0.00%     84.48% # Type of FU issued
system.cpu0.iq.FU_type_0::SimdCvt                   0      0.00%     84.48% # Type of FU issued
system.cpu0.iq.FU_type_0::SimdMisc                  0      0.00%     84.48% # Type of FU issued
system.cpu0.iq.FU_type_0::SimdMult                  0      0.00%     84.48% # Type of FU issued
system.cpu0.iq.FU_type_0::SimdMultAcc               0      0.00%     84.48% # Type of FU issued
system.cpu0.iq.FU_type_0::SimdShift                 0      0.00%     84.48% # Type of FU issued
system.cpu0.iq.FU_type_0::SimdShiftAcc              0      0.00%     84.48% # Type of FU issued
system.cpu0.iq.FU_type_0::SimdSqrt                  0      0.00%     84.48% # Type of FU issued
system.cpu0.iq.FU_type_0::SimdFloatAdd              0      0.00%     84.48% # Type of FU issued
system.cpu0.iq.FU_type_0::SimdFloatAlu              0      0.00%     84.48% # Type of FU issued
system.cpu0.iq.FU_type_0::SimdFloatCmp              0      0.00%     84.48% # Type of FU issued
system.cpu0.iq.FU_type_0::SimdFloatCvt              0      0.00%     84.48% # Type of FU issued
system.cpu0.iq.FU_type_0::SimdFloatDiv              0      0.00%     84.48% # Type of FU issued
system.cpu0.iq.FU_type_0::SimdFloatMisc             0      0.00%     84.48% # Type of FU issued
system.cpu0.iq.FU_type_0::SimdFloatMult             0      0.00%     84.48% # Type of FU issued
system.cpu0.iq.FU_type_0::SimdFloatMultAcc            0      0.00%     84.48% # Type of FU issued
system.cpu0.iq.FU_type_0::SimdFloatSqrt             0      0.00%     84.48% # Type of FU issued
system.cpu0.iq.FU_type_0::MemRead             1969669      2.78%     87.26% # Type of FU issued
system.cpu0.iq.FU_type_0::MemWrite            1476243      2.08%     89.35% # Type of FU issued
system.cpu0.iq.FU_type_0::FloatMemRead        6920852      9.76%     99.11% # Type of FU issued
system.cpu0.iq.FU_type_0::FloatMemWrite        629890      0.89%    100.00% # Type of FU issued
system.cpu0.iq.FU_type_0::IprAccess                 0      0.00%    100.00% # Type of FU issued
system.cpu0.iq.FU_type_0::InstPrefetch              0      0.00%    100.00% # Type of FU issued
system.cpu0.iq.FU_type_0::total              70874846                       # Type of FU issued
system.cpu0.iq.rate                          2.321126                       # Inst issue rate
system.cpu0.iq.fu_busy_cnt                     105588                       # FU busy when requested
system.cpu0.iq.fu_busy_rate                  0.001490                       # FU busy rate (busy events/executed inst)
system.cpu0.iq.int_inst_queue_reads          97636522                       # Number of integer instruction queue reads
system.cpu0.iq.int_inst_queue_writes         37524204                       # Number of integer instruction queue writes
system.cpu0.iq.int_inst_queue_wakeup_accesses     33458565                       # Number of integer instruction queue wakeup accesses
system.cpu0.iq.fp_inst_queue_reads           74753846                       # Number of floating instruction queue reads
system.cpu0.iq.fp_inst_queue_writes          49520615                       # Number of floating instruction queue writes
system.cpu0.iq.fp_inst_queue_wakeup_accesses     37145420                       # Number of floating instruction queue wakeup accesses
system.cpu0.iq.vec_inst_queue_reads                 0                       # Number of vector instruction queue reads
system.cpu0.iq.vec_inst_queue_writes                0                       # Number of vector instruction queue writes
system.cpu0.iq.vec_inst_queue_wakeup_accesses            0                       # Number of vector instruction queue wakeup accesses
system.cpu0.iq.int_alu_accesses              33544372                       # Number of integer alu accesses
system.cpu0.iq.fp_alu_accesses               37428938                       # Number of floating point alu accesses
system.cpu0.iq.vec_alu_accesses                     0                       # Number of vector alu accesses
system.cpu0.iew.lsq.thread0.forwLoads          420330                       # Number of loads that had data forwarded from stores
system.cpu0.iew.lsq.thread0.invAddrLoads            0                       # Number of loads ignored due to an invalid address
system.cpu0.iew.lsq.thread0.squashedLoads      1373540                       # Number of loads squashed
system.cpu0.iew.lsq.thread0.ignoredResponses            3                       # Number of memory responses ignored because the instruction is squashed
system.cpu0.iew.lsq.thread0.memOrderViolation          106                       # Number of memory ordering violations
system.cpu0.iew.lsq.thread0.squashedStores         9494                       # Number of stores squashed
system.cpu0.iew.lsq.thread0.invAddrSwpfs            0                       # Number of software prefetches ignored due to an invalid address
system.cpu0.iew.lsq.thread0.blockedLoads            0                       # Number of blocked loads due to partial load-store forwarding
system.cpu0.iew.lsq.thread0.rescheduledLoads            0                       # Number of loads that were rescheduled
system.cpu0.iew.lsq.thread0.cacheBlocked            0                       # Number of times an access to memory failed due to the cache being blocked
system.cpu0.iew.iewIdleCycles                       0                       # Number of cycles IEW is idle
system.cpu0.iew.iewSquashCycles                109487                       # Number of cycles IEW is squashing
system.cpu0.iew.iewBlockCycles                3345490                       # Number of cycles IEW is blocking
system.cpu0.iew.iewUnblockCycles               157758                       # Number of cycles IEW is unblocking
system.cpu0.iew.iewDispatchedInsts           76529913                       # Number of instructions dispatched to IQ
system.cpu0.iew.iewDispSquashedInsts                6                       # Number of squashed instructions skipped by dispatch
system.cpu0.iew.iewDispLoadInsts              9501538                       # Number of dispatched load instructions
system.cpu0.iew.iewDispStoreInsts             2110971                       # Number of dispatched store instructions
system.cpu0.iew.iewDispNonSpecInsts                 0                       # Number of dispatched non-speculative instructions
system.cpu0.iew.iewIQFullEvents                144230                       # Number of times the IQ has become full, causing a stall
system.cpu0.iew.iewLSQFullEvents                    0                       # Number of times the LSQ has become full, causing a stall
system.cpu0.iew.memOrderViolationEvents           106                       # Number of memory order violations
system.cpu0.iew.predictedTakenIncorrect         81894                       # Number of branches that were predicted taken incorrectly
system.cpu0.iew.predictedNotTakenIncorrect        28516                       # Number of branches that were predicted not taken incorrectly
system.cpu0.iew.branchMispredicts              110410                       # Number of branch mispredicts detected at execute
system.cpu0.iew.iewExecutedInsts             70617678                       # Number of executed instructions
system.cpu0.iew.iewExecLoadInsts              8887934                       # Number of load instructions executed
system.cpu0.iew.iewExecSquashedInsts           257166                       # Number of squashed instructions skipped in execute
system.cpu0.iew.exec_swp                            0                       # number of swp insts executed
system.cpu0.iew.exec_nop                            0                       # number of nop insts executed
system.cpu0.iew.exec_refs                    10993198                       # number of memory reference insts executed
system.cpu0.iew.exec_branches                 4726934                       # Number of branches executed
system.cpu0.iew.exec_stores                   2105264                       # Number of stores executed
system.cpu0.iew.exec_rate                    2.312703                       # Inst execution rate
system.cpu0.iew.wb_sent                      70610521                       # cumulative count of insts sent to commit
system.cpu0.iew.wb_count                     70603985                       # cumulative count of insts written-back
system.cpu0.iew.wb_producers                 52622435                       # num instructions producing a value
system.cpu0.iew.wb_consumers                 92620075                       # num instructions consuming a value
system.cpu0.iew.wb_rate                      2.312255                       # insts written-back per cycle
system.cpu0.iew.wb_fanout                    0.568154                       # average fanout of values written-back
system.cpu0.commit.commitSquashedInsts       10514800                       # The number of squashed insts skipped by commit
system.cpu0.commit.branchMispredicts           109381                       # The number of times a branch was mispredicted
system.cpu0.commit.committed_per_cycle::samples     29191239                       # Number of insts commited each cycle
system.cpu0.commit.committed_per_cycle::mean     2.261470                       # Number of insts commited each cycle
system.cpu0.commit.committed_per_cycle::stdev     2.865415                       # Number of insts commited each cycle
system.cpu0.commit.committed_per_cycle::underflows            0      0.00%      0.00% # Number of insts commited each cycle
system.cpu0.commit.committed_per_cycle::0     10928163     37.44%     37.44% # Number of insts commited each cycle
system.cpu0.commit.committed_per_cycle::1      7533112     25.81%     63.24% # Number of insts commited each cycle
system.cpu0.commit.committed_per_cycle::2      1058097      3.62%     66.87% # Number of insts commited each cycle
system.cpu0.commit.committed_per_cycle::3      2872518      9.84%     76.71% # Number of insts commited each cycle
system.cpu0.commit.committed_per_cycle::4      1144769      3.92%     80.63% # Number of insts commited each cycle
system.cpu0.commit.committed_per_cycle::5       217972      0.75%     81.38% # Number of insts commited each cycle
system.cpu0.commit.committed_per_cycle::6       422686      1.45%     82.82% # Number of insts commited each cycle
system.cpu0.commit.committed_per_cycle::7       568177      1.95%     84.77% # Number of insts commited each cycle
system.cpu0.commit.committed_per_cycle::8      4445745     15.23%    100.00% # Number of insts commited each cycle
system.cpu0.commit.committed_per_cycle::overflows            0      0.00%    100.00% # Number of insts commited each cycle
system.cpu0.commit.committed_per_cycle::min_value            0                       # Number of insts commited each cycle
system.cpu0.commit.committed_per_cycle::max_value            8                       # Number of insts commited each cycle
system.cpu0.commit.committed_per_cycle::total     29191239                       # Number of insts commited each cycle
system.cpu0.commit.committedInsts            37183137                       # Number of instructions committed
system.cpu0.commit.committedOps              66015111                       # Number of ops (including micro ops) committed
system.cpu0.commit.swp_count                        0                       # Number of s/w prefetches committed
system.cpu0.commit.refs                      10229479                       # Number of memory references committed
system.cpu0.commit.loads                      8127999                       # Number of loads committed
system.cpu0.commit.membars                          0                       # Number of memory barriers committed
system.cpu0.commit.branches                   4618932                       # Number of branches committed
system.cpu0.commit.vec_insts                        0                       # Number of committed Vector instructions.
system.cpu0.commit.fp_insts                  34134837                       # Number of committed floating point instructions.
system.cpu0.commit.int_insts                 40982015                       # Number of committed integer instructions.
system.cpu0.commit.function_calls              628314                       # Number of function calls committed.
system.cpu0.commit.op_class_0::No_OpClass         6000      0.01%      0.01% # Class of committed instruction
system.cpu0.commit.op_class_0::IntAlu        34313948     51.98%     51.99% # Class of committed instruction
system.cpu0.commit.op_class_0::IntMult              0      0.00%     51.99% # Class of committed instruction
system.cpu0.commit.op_class_0::IntDiv               0      0.00%     51.99% # Class of committed instruction
system.cpu0.commit.op_class_0::FloatAdd      21465684     32.52%     84.50% # Class of committed instruction
system.cpu0.commit.op_class_0::FloatCmp             0      0.00%     84.50% # Class of committed instruction
system.cpu0.commit.op_class_0::FloatCvt             0      0.00%     84.50% # Class of committed instruction
system.cpu0.commit.op_class_0::FloatMult            0      0.00%     84.50% # Class of committed instruction
system.cpu0.commit.op_class_0::FloatMultAcc            0      0.00%     84.50% # Class of committed instruction
system.cpu0.commit.op_class_0::FloatDiv             0      0.00%     84.50% # Class of committed instruction
system.cpu0.commit.op_class_0::FloatMisc            0      0.00%     84.50% # Class of committed instruction
system.cpu0.commit.op_class_0::FloatSqrt            0      0.00%     84.50% # Class of committed instruction
system.cpu0.commit.op_class_0::SimdAdd              0      0.00%     84.50% # Class of committed instruction
system.cpu0.commit.op_class_0::SimdAddAcc            0      0.00%     84.50% # Class of committed instruction
system.cpu0.commit.op_class_0::SimdAlu              0      0.00%     84.50% # Class of committed instruction
system.cpu0.commit.op_class_0::SimdCmp              0      0.00%     84.50% # Class of committed instruction
system.cpu0.commit.op_class_0::SimdCvt              0      0.00%     84.50% # Class of committed instruction
system.cpu0.commit.op_class_0::SimdMisc             0      0.00%     84.50% # Class of committed instruction
system.cpu0.commit.op_class_0::SimdMult             0      0.00%     84.50% # Class of committed instruction
system.cpu0.commit.op_class_0::SimdMultAcc            0      0.00%     84.50% # Class of committed instruction
system.cpu0.commit.op_class_0::SimdShift            0      0.00%     84.50% # Class of committed instruction
system.cpu0.commit.op_class_0::SimdShiftAcc            0      0.00%     84.50% # Class of committed instruction
system.cpu0.commit.op_class_0::SimdSqrt             0      0.00%     84.50% # Class of committed instruction
system.cpu0.commit.op_class_0::SimdFloatAdd            0      0.00%     84.50% # Class of committed instruction
system.cpu0.commit.op_class_0::SimdFloatAlu            0      0.00%     84.50% # Class of committed instruction
system.cpu0.commit.op_class_0::SimdFloatCmp            0      0.00%     84.50% # Class of committed instruction
system.cpu0.commit.op_class_0::SimdFloatCvt            0      0.00%     84.50% # Class of committed instruction
system.cpu0.commit.op_class_0::SimdFloatDiv            0      0.00%     84.50% # Class of committed instruction
system.cpu0.commit.op_class_0::SimdFloatMisc            0      0.00%     84.50% # Class of committed instruction
system.cpu0.commit.op_class_0::SimdFloatMult            0      0.00%     84.50% # Class of committed instruction
system.cpu0.commit.op_class_0::SimdFloatMultAcc            0      0.00%     84.50% # Class of committed instruction
system.cpu0.commit.op_class_0::SimdFloatSqrt            0      0.00%     84.50% # Class of committed instruction
system.cpu0.commit.op_class_0::MemRead        1952398      2.96%     87.46% # Class of committed instruction
system.cpu0.commit.op_class_0::MemWrite       1473158      2.23%     89.69% # Class of committed instruction
system.cpu0.commit.op_class_0::FloatMemRead      6175601      9.35%     99.05% # Class of committed instruction
system.cpu0.commit.op_class_0::FloatMemWrite       628322      0.95%    100.00% # Class of committed instruction
system.cpu0.commit.op_class_0::IprAccess            0      0.00%    100.00% # Class of committed instruction
system.cpu0.commit.op_class_0::InstPrefetch            0      0.00%    100.00% # Class of committed instruction
system.cpu0.commit.op_class_0::total         66015111                       # Class of committed instruction
system.cpu0.commit.bw_lim_events              4445745                       # number cycles where commit BW limit reached
system.cpu0.rob.rob_reads                   101275405                       # The number of ROB reads
system.cpu0.rob.rob_writes                  154403314                       # The number of ROB writes
system.cpu0.committedInsts                   37183137                       # Number of Instructions Simulated
system.cpu0.committedOps                     66015111                       # Number of Ops (including micro ops) Simulated
system.cpu0.cpi                              0.821197                       # CPI: Cycles Per Instruction
system.cpu0.cpi_total                        0.821197                       # CPI: Total CPI of All Threads
system.cpu0.ipc                              1.217734                       # IPC: Instructions Per Cycle
system.cpu0.ipc_total                        1.217734                       # IPC: Total IPC of All Threads
system.cpu0.int_regfile_reads                56258851                       # number of integer regfile reads
system.cpu0.int_regfile_writes               28606350                       # number of integer regfile writes
system.cpu0.fp_regfile_reads                 64756849                       # number of floating regfile reads
system.cpu0.fp_regfile_writes                33278588                       # number of floating regfile writes
system.cpu0.cc_regfile_reads                 20676464                       # number of cc regfile reads
system.cpu0.cc_regfile_writes                13437574                       # number of cc regfile writes
system.cpu0.misc_regfile_reads               24147473                       # number of misc regfile reads
system.cpu0.dcache.tags.pwrStateResidencyTicks::UNDEFINED  15267344125                       # Cumulative time (in ticks) in various power states
system.cpu0.dcache.tags.replacements            14307                       # number of replacements
system.cpu0.dcache.tags.tagsinuse                1024                       # Cycle average of tags in use
system.cpu0.dcache.tags.total_refs            1081238                       # Total number of references to valid blocks.
system.cpu0.dcache.tags.sampled_refs            14307                       # Sample count of references to valid blocks.
system.cpu0.dcache.tags.avg_refs            75.574055                       # Average number of references to valid blocks.
system.cpu0.dcache.tags.warmup_cycle                0                       # Cycle when the warmup percentage was hit.
system.cpu0.dcache.tags.occ_blocks::cpu0.data         1024                       # Average occupied blocks per requestor
system.cpu0.dcache.tags.occ_percent::cpu0.data            1                       # Average percentage of cache occupancy
system.cpu0.dcache.tags.occ_percent::total            1                       # Average percentage of cache occupancy
system.cpu0.dcache.tags.occ_task_id_blocks::1024         1024                       # Occupied blocks per task id
system.cpu0.dcache.tags.age_task_id_blocks_1024::0           10                       # Occupied blocks per task id
system.cpu0.dcache.tags.age_task_id_blocks_1024::1           83                       # Occupied blocks per task id
system.cpu0.dcache.tags.age_task_id_blocks_1024::2          696                       # Occupied blocks per task id
system.cpu0.dcache.tags.age_task_id_blocks_1024::3           14                       # Occupied blocks per task id
system.cpu0.dcache.tags.age_task_id_blocks_1024::4          221                       # Occupied blocks per task id
system.cpu0.dcache.tags.occ_task_id_percent::1024            1                       # Percentage of cache occupancy per task id
system.cpu0.dcache.tags.tag_accesses         42396159                       # Number of tag accesses
system.cpu0.dcache.tags.data_accesses        42396159                       # Number of data accesses
system.cpu0.dcache.pwrStateResidencyTicks::UNDEFINED  15267344125                       # Cumulative time (in ticks) in various power states
system.cpu0.dcache.ReadReq_hits::cpu0.data      8479560                       # number of ReadReq hits
system.cpu0.dcache.ReadReq_hits::total        8479560                       # number of ReadReq hits
system.cpu0.dcache.WriteReq_hits::cpu0.data      2101480                       # number of WriteReq hits
system.cpu0.dcache.WriteReq_hits::total       2101480                       # number of WriteReq hits
system.cpu0.dcache.demand_hits::cpu0.data     10581040                       # number of demand (read+write) hits
system.cpu0.dcache.demand_hits::total        10581040                       # number of demand (read+write) hits
system.cpu0.dcache.overall_hits::cpu0.data     10581040                       # number of overall hits
system.cpu0.dcache.overall_hits::total       10581040                       # number of overall hits
system.cpu0.dcache.ReadReq_misses::cpu0.data        14423                       # number of ReadReq misses
system.cpu0.dcache.ReadReq_misses::total        14423                       # number of ReadReq misses
system.cpu0.dcache.demand_misses::cpu0.data        14423                       # number of demand (read+write) misses
system.cpu0.dcache.demand_misses::total         14423                       # number of demand (read+write) misses
system.cpu0.dcache.overall_misses::cpu0.data        14423                       # number of overall misses
system.cpu0.dcache.overall_misses::total        14423                       # number of overall misses
system.cpu0.dcache.ReadReq_miss_latency::cpu0.data   1394506500                       # number of ReadReq miss cycles
system.cpu0.dcache.ReadReq_miss_latency::total   1394506500                       # number of ReadReq miss cycles
system.cpu0.dcache.demand_miss_latency::cpu0.data   1394506500                       # number of demand (read+write) miss cycles
system.cpu0.dcache.demand_miss_latency::total   1394506500                       # number of demand (read+write) miss cycles
system.cpu0.dcache.overall_miss_latency::cpu0.data   1394506500                       # number of overall miss cycles
system.cpu0.dcache.overall_miss_latency::total   1394506500                       # number of overall miss cycles
system.cpu0.dcache.ReadReq_accesses::cpu0.data      8493983                       # number of ReadReq accesses(hits+misses)
system.cpu0.dcache.ReadReq_accesses::total      8493983                       # number of ReadReq accesses(hits+misses)
system.cpu0.dcache.WriteReq_accesses::cpu0.data      2101480                       # number of WriteReq accesses(hits+misses)
system.cpu0.dcache.WriteReq_accesses::total      2101480                       # number of WriteReq accesses(hits+misses)
system.cpu0.dcache.demand_accesses::cpu0.data     10595463                       # number of demand (read+write) accesses
system.cpu0.dcache.demand_accesses::total     10595463                       # number of demand (read+write) accesses
system.cpu0.dcache.overall_accesses::cpu0.data     10595463                       # number of overall (read+write) accesses
system.cpu0.dcache.overall_accesses::total     10595463                       # number of overall (read+write) accesses
system.cpu0.dcache.ReadReq_miss_rate::cpu0.data     0.001698                       # miss rate for ReadReq accesses
system.cpu0.dcache.ReadReq_miss_rate::total     0.001698                       # miss rate for ReadReq accesses
system.cpu0.dcache.demand_miss_rate::cpu0.data     0.001361                       # miss rate for demand accesses
system.cpu0.dcache.demand_miss_rate::total     0.001361                       # miss rate for demand accesses
system.cpu0.dcache.overall_miss_rate::cpu0.data     0.001361                       # miss rate for overall accesses
system.cpu0.dcache.overall_miss_rate::total     0.001361                       # miss rate for overall accesses
system.cpu0.dcache.ReadReq_avg_miss_latency::cpu0.data 96686.299660                       # average ReadReq miss latency
system.cpu0.dcache.ReadReq_avg_miss_latency::total 96686.299660                       # average ReadReq miss latency
system.cpu0.dcache.demand_avg_miss_latency::cpu0.data 96686.299660                       # average overall miss latency
system.cpu0.dcache.demand_avg_miss_latency::total 96686.299660                       # average overall miss latency
system.cpu0.dcache.overall_avg_miss_latency::cpu0.data 96686.299660                       # average overall miss latency
system.cpu0.dcache.overall_avg_miss_latency::total 96686.299660                       # average overall miss latency
system.cpu0.dcache.blocked_cycles::no_mshrs            0                       # number of cycles access was blocked
system.cpu0.dcache.blocked_cycles::no_targets            0                       # number of cycles access was blocked
system.cpu0.dcache.blocked::no_mshrs                0                       # number of cycles access was blocked
system.cpu0.dcache.blocked::no_targets              0                       # number of cycles access was blocked
system.cpu0.dcache.avg_blocked_cycles::no_mshrs          nan                       # average number of cycles each access was blocked
system.cpu0.dcache.avg_blocked_cycles::no_targets          nan                       # average number of cycles each access was blocked
system.cpu0.dcache.writebacks::writebacks        13453                       # number of writebacks
system.cpu0.dcache.writebacks::total            13453                       # number of writebacks
system.cpu0.dcache.ReadReq_mshr_hits::cpu0.data          116                       # number of ReadReq MSHR hits
system.cpu0.dcache.ReadReq_mshr_hits::total          116                       # number of ReadReq MSHR hits
system.cpu0.dcache.demand_mshr_hits::cpu0.data          116                       # number of demand (read+write) MSHR hits
system.cpu0.dcache.demand_mshr_hits::total          116                       # number of demand (read+write) MSHR hits
system.cpu0.dcache.overall_mshr_hits::cpu0.data          116                       # number of overall MSHR hits
system.cpu0.dcache.overall_mshr_hits::total          116                       # number of overall MSHR hits
[...]
system.l2.tags.pwrStateResidencyTicks::UNDEFINED  15267344125                       # Cumulative time (in ticks) in various power states
system.l2.tags.replacements                     14278                       # number of replacements
system.l2.tags.tagsinuse                        49152                       # Cycle average of tags in use
system.l2.tags.total_refs                       14278                       # Total number of references to valid blocks.
system.l2.tags.sampled_refs                     14278                       # Sample count of references to valid blocks.
system.l2.tags.avg_refs                             1                       # Average number of references to valid blocks.
system.l2.tags.warmup_cycle                         0                       # Cycle when the warmup percentage was hit.
system.l2.tags.occ_blocks::cpu0.data            49152                       # Average occupied blocks per requestor
system.l2.tags.occ_percent::cpu0.data               1                       # Average percentage of cache occupancy
system.l2.tags.occ_percent::total                   1                       # Average percentage of cache occupancy
system.l2.tags.occ_task_id_blocks::1024         49152                       # Occupied blocks per task id
system.l2.tags.age_task_id_blocks_1024::0           10                       # Occupied blocks per task id
system.l2.tags.age_task_id_blocks_1024::1           83                       # Occupied blocks per task id
system.l2.tags.age_task_id_blocks_1024::2          846                       # Occupied blocks per task id
system.l2.tags.age_task_id_blocks_1024::3         8416                       # Occupied blocks per task id
system.l2.tags.age_task_id_blocks_1024::4        39797                       # Occupied blocks per task id
system.l2.tags.occ_task_id_percent::1024            1                       # Percentage of cache occupancy per task id
system.l2.tags.tag_accesses                    357646                       # Number of tag accesses
system.l2.tags.data_accesses                   357646                       # Number of data accesses
system.l2.pwrStateResidencyTicks::UNDEFINED  15267344125                       # Cumulative time (in ticks) in various power states
system.l2.WritebackDirty_hits::writebacks        13453                       # number of WritebackDirty hits
system.l2.WritebackDirty_hits::total            13453                       # number of WritebackDirty hits
system.l2.ReadSharedReq_hits::cpu0.data            29                       # number of ReadSharedReq hits
system.l2.ReadSharedReq_hits::total                29                       # number of ReadSharedReq hits
system.l2.demand_hits::cpu0.data                   29                       # number of demand (read+write) hits
system.l2.demand_hits::total                       29                       # number of demand (read+write) hits
system.l2.overall_hits::cpu0.data                  29                       # number of overall hits
system.l2.overall_hits::total                      29                       # number of overall hits
system.l2.ReadSharedReq_misses::cpu0.data        14278                       # number of ReadSharedReq misses
system.l2.ReadSharedReq_misses::total           14278                       # number of ReadSharedReq misses
system.l2.demand_misses::cpu0.data              14278                       # number of demand (read+write) misses
system.l2.demand_misses::total                  14278                       # number of demand (read+write) misses
system.l2.overall_misses::cpu0.data             14278                       # number of overall misses
system.l2.overall_misses::total                 14278                       # number of overall misses
system.l2.ReadSharedReq_miss_latency::cpu0.data   1349832500                       # number of ReadSharedReq miss cycles
system.l2.ReadSharedReq_miss_latency::total   1349832500                       # number of ReadSharedReq miss cycles
system.l2.demand_miss_latency::cpu0.data   1349832500                       # number of demand (read+write) miss cycles
system.l2.demand_miss_latency::total       1349832500                       # number of demand (read+write) miss cycles
system.l2.overall_miss_latency::cpu0.data   1349832500                       # number of overall miss cycles
system.l2.overall_miss_latency::total      1349832500                       # number of overall miss cycles
system.l2.WritebackDirty_accesses::writebacks        13453                       # number of WritebackDirty accesses(hits+misses)
system.l2.WritebackDirty_accesses::total        13453                       # number of WritebackDirty accesses(hits+misses)
system.l2.ReadSharedReq_accesses::cpu0.data        14307                       # number of ReadSharedReq accesses(hits+misses)
system.l2.ReadSharedReq_accesses::total         14307                       # number of ReadSharedReq accesses(hits+misses)
system.l2.demand_accesses::cpu0.data            14307                       # number of demand (read+write) accesses
system.l2.demand_accesses::total                14307                       # number of demand (read+write) accesses
system.l2.overall_accesses::cpu0.data           14307                       # number of overall (read+write) accesses
system.l2.overall_accesses::total               14307                       # number of overall (read+write) accesses
system.l2.ReadSharedReq_miss_rate::cpu0.data     0.997973                       # miss rate for ReadSharedReq accesses
system.l2.ReadSharedReq_miss_rate::total     0.997973                       # miss rate for ReadSharedReq accesses
system.l2.demand_miss_rate::cpu0.data        0.997973                       # miss rate for demand accesses
system.l2.demand_miss_rate::total            0.997973                       # miss rate for demand accesses
system.l2.overall_miss_rate::cpu0.data       0.997973                       # miss rate for overall accesses
system.l2.overall_miss_rate::total           0.997973                       # miss rate for overall accesses
system.l2.ReadSharedReq_avg_miss_latency::cpu0.data 94539.326236                       # average ReadSharedReq miss latency
system.l2.ReadSharedReq_avg_miss_latency::total 94539.326236                       # average ReadSharedReq miss latency
system.l2.demand_avg_miss_latency::cpu0.data 94539.326236                       # average overall miss latency
system.l2.demand_avg_miss_latency::total 94539.326236                       # average overall miss latency
system.l2.overall_avg_miss_latency::cpu0.data 94539.326236                       # average overall miss latency
system.l2.overall_avg_miss_latency::total 94539.326236                       # average overall miss latency
system.l2.blocked_cycles::no_mshrs                  0                       # number of cycles access was blocked
system.l2.blocked_cycles::no_targets                0                       # number of cycles access was blocked
system.l2.blocked::no_mshrs                         0                       # number of cycles access was blocked
system.l2.blocked::no_targets                       0                       # number of cycles access was blocked
system.l2.avg_blocked_cycles::no_mshrs            nan                       # average number of cycles each access was blocked
system.l2.avg_blocked_cycles::no_targets          nan                       # average number of cycles each access was blocked
system.l2.writebacks::writebacks                13499                       # number of writebacks
system.l2.writebacks::total                     13499                       # number of writebacks
system.l2.ReadSharedReq_mshr_misses::cpu0.data        14278                       # number of ReadSharedReq MSHR misses
system.l2.ReadSharedReq_mshr_misses::total        14278                       # number of ReadSharedReq MSHR misses
system.l2.demand_mshr_misses::cpu0.data         14278                       # number of demand (read+write) MSHR misses
system.l2.demand_mshr_misses::total             14278                       # number of demand (read+write) MSHR misses
system.l2.overall_mshr_misses::cpu0.data        14278                       # number of overall MSHR misses
system.l2.overall_mshr_misses::total            14278                       # number of overall MSHR misses
system.l2.ReadSharedReq_mshr_miss_latency::cpu0.data   1207052500                       # number of ReadSharedReq MSHR miss cycles
system.l2.ReadSharedReq_mshr_miss_latency::total   1207052500                       # number of ReadSharedReq MSHR miss cycles
system.l2.demand_mshr_miss_latency::cpu0.data   1207052500                       # number of demand (read+write) MSHR miss cycles
system.l2.demand_mshr_miss_latency::total   1207052500                       # number of demand (read+write) MSHR miss cycles
system.l2.overall_mshr_miss_latency::cpu0.data   1207052500                       # number of overall MSHR miss cycles
system.l2.overall_mshr_miss_latency::total   1207052500                       # number of overall MSHR miss cycles
system.l2.ReadSharedReq_mshr_miss_rate::cpu0.data     0.997973                       # mshr miss rate for ReadSharedReq accesses
system.l2.ReadSharedReq_mshr_miss_rate::total     0.997973                       # mshr miss rate for ReadSharedReq accesses
system.l2.demand_mshr_miss_rate::cpu0.data     0.997973                       # mshr miss rate for demand accesses
system.l2.demand_mshr_miss_rate::total       0.997973                       # mshr miss rate for demand accesses
system.l2.overall_mshr_miss_rate::cpu0.data     0.997973                       # mshr miss rate for overall accesses
system.l2.overall_mshr_miss_rate::total      0.997973                       # mshr miss rate for overall accesses
system.l2.ReadSharedReq_avg_mshr_miss_latency::cpu0.data 84539.326236                       # average ReadSharedReq mshr miss latency
system.l2.ReadSharedReq_avg_mshr_miss_latency::total 84539.326236                       # average ReadSharedReq mshr miss latency
system.l2.demand_avg_mshr_miss_latency::cpu0.data 84539.326236                       # average overall mshr miss latency
system.l2.demand_avg_mshr_miss_latency::total 84539.326236                       # average overall mshr miss latency
system.l2.overall_avg_mshr_miss_latency::cpu0.data 84539.326236                       # average overall mshr miss latency
system.l2.overall_avg_mshr_miss_latency::total 84539.326236                       # average overall mshr miss latency
system.membus.snoop_filter.tot_requests         28556                       # Total number of requests made to the snoop filter.
system.membus.snoop_filter.hit_single_requests        14278                       # Number of requests hitting in the snoop filter with a single holder of the requested data.
system.membus.snoop_filter.hit_multi_requests            0                       # Number of requests hitting in the snoop filter with multiple (>1) holders of the requested data.
system.membus.snoop_filter.tot_snoops               0                       # Total number of snoops made to the snoop filter.
system.membus.snoop_filter.hit_single_snoops            0                       # Number of snoops hitting in the snoop filter with a single holder of the requested data.
system.membus.snoop_filter.hit_multi_snoops            0                       # Number of snoops hitting in the snoop filter with multiple (>1) holders of the requested data.
system.membus.pwrStateResidencyTicks::UNDEFINED  15267344125                       # Cumulative time (in ticks) in various power states
system.membus.trans_dist::ReadResp              14278                       # Transaction distribution
system.membus.trans_dist::WritebackDirty        13499                       # Transaction distribution
system.membus.trans_dist::CleanEvict              779                       # Transaction distribution
system.membus.trans_dist::ReadSharedReq         14278                       # Transaction distribution
system.membus.pkt_count_system.l2.mem_side::system.mem_ctrls.port        42834                       # Packet count per connected master and slave (bytes)
system.membus.pkt_count_system.l2.mem_side::total        42834                       # Packet count per connected master and slave (bytes)
system.membus.pkt_count::total                  42834                       # Packet count per connected master and slave (bytes)
system.membus.pkt_size_system.l2.mem_side::system.mem_ctrls.port      1777728                       # Cumulative packet size per connected master and slave (bytes)
system.membus.pkt_size_system.l2.mem_side::total      1777728                       # Cumulative packet size per connected master and slave (bytes)
system.membus.pkt_size::total                 1777728                       # Cumulative packet size per connected master and slave (bytes)
system.membus.snoops                                0                       # Total snoops (count)
system.membus.snoopTraffic                          0                       # Total snoop traffic (bytes)
system.membus.snoop_fanout::samples             14278                       # Request fanout histogram
system.membus.snoop_fanout::mean                    0                       # Request fanout histogram
system.membus.snoop_fanout::stdev                   0                       # Request fanout histogram
system.membus.snoop_fanout::underflows              0      0.00%      0.00% # Request fanout histogram
system.membus.snoop_fanout::0                   14278    100.00%    100.00% # Request fanout histogram
system.membus.snoop_fanout::1                       0      0.00%    100.00% # Request fanout histogram
system.membus.snoop_fanout::overflows               0      0.00%    100.00% # Request fanout histogram
system.membus.snoop_fanout::min_value               0                       # Request fanout histogram
system.membus.snoop_fanout::max_value               0                       # Request fanout histogram
system.membus.snoop_fanout::total               14278                       # Request fanout histogram
system.membus.reqLayer8.occupancy            86162500                       # Layer occupancy (ticks)
system.membus.reqLayer8.utilization               0.6                       # Layer utilization (%)
system.membus.respLayer1.occupancy           76032250                       # Layer occupancy (ticks)
system.membus.respLayer1.utilization              0.5                       # Layer utilization (%)
system.tol2bus.snoop_filter.tot_requests        28614                       # Total number of requests made to the snoop filter.
system.tol2bus.snoop_filter.hit_single_requests        14307                       # Number of requests hitting in the snoop filter with a single holder of the requested data.
system.tol2bus.snoop_filter.hit_multi_requests            0                       # Number of requests hitting in the snoop filter with multiple (>1) holders of the requested data.
system.tol2bus.snoop_filter.tot_snoops              0                       # Total number of snoops made to the snoop filter.
system.tol2bus.snoop_filter.hit_single_snoops            0                       # Number of snoops hitting in the snoop filter with a single holder of the requested data.
system.tol2bus.snoop_filter.hit_multi_snoops            0                       # Number of snoops hitting in the snoop filter with multiple (>1) holders of the requested data.
system.tol2bus.pwrStateResidencyTicks::UNDEFINED  15267344125                       # Cumulative time (in ticks) in various power states
system.tol2bus.trans_dist::ReadResp             14307                       # Transaction distribution
system.tol2bus.trans_dist::WritebackDirty        26952                       # Transaction distribution
system.tol2bus.trans_dist::CleanEvict            1633                       # Transaction distribution
system.tol2bus.trans_dist::ReadSharedReq        14307                       # Transaction distribution
system.tol2bus.pkt_count_system.cpu0.dcache.mem_side::system.l2.cpu_side        42921                       # Packet count per connected master and slave (bytes)
system.tol2bus.pkt_count::total                 42921                       # Packet count per connected master and slave (bytes)
system.tol2bus.pkt_size_system.cpu0.dcache.mem_side::system.l2.cpu_side      1776640                       # Cumulative packet size per connected master and slave (bytes)
system.tol2bus.pkt_size::total                1776640                       # Cumulative packet size per connected master and slave (bytes)
system.tol2bus.snoops                           14278                       # Total snoops (count)
system.tol2bus.snoopTraffic                    863936                       # Total snoop traffic (bytes)
system.tol2bus.snoop_fanout::samples            28585                       # Request fanout histogram
system.tol2bus.snoop_fanout::mean                   0                       # Request fanout histogram
system.tol2bus.snoop_fanout::stdev                  0                       # Request fanout histogram
system.tol2bus.snoop_fanout::underflows             0      0.00%      0.00% # Request fanout histogram
system.tol2bus.snoop_fanout::0                  28585    100.00%    100.00% # Request fanout histogram
system.tol2bus.snoop_fanout::1                      0      0.00%    100.00% # Request fanout histogram
system.tol2bus.snoop_fanout::2                      0      0.00%    100.00% # Request fanout histogram
system.tol2bus.snoop_fanout::3                      0      0.00%    100.00% # Request fanout histogram
system.tol2bus.snoop_fanout::4                      0      0.00%    100.00% # Request fanout histogram
system.tol2bus.snoop_fanout::5                      0      0.00%    100.00% # Request fanout histogram
system.tol2bus.snoop_fanout::6                      0      0.00%    100.00% # Request fanout histogram
system.tol2bus.snoop_fanout::7                      0      0.00%    100.00% # Request fanout histogram
system.tol2bus.snoop_fanout::8                      0      0.00%    100.00% # Request fanout histogram
system.tol2bus.snoop_fanout::9                      0      0.00%    100.00% # Request fanout histogram
system.tol2bus.snoop_fanout::10                     0      0.00%    100.00% # Request fanout histogram
system.tol2bus.snoop_fanout::11                     0      0.00%    100.00% # Request fanout histogram
system.tol2bus.snoop_fanout::12                     0      0.00%    100.00% # Request fanout histogram
system.tol2bus.snoop_fanout::13                     0      0.00%    100.00% # Request fanout histogram
system.tol2bus.snoop_fanout::14                     0      0.00%    100.00% # Request fanout histogram
system.tol2bus.snoop_fanout::15                     0      0.00%    100.00% # Request fanout histogram
system.tol2bus.snoop_fanout::16                     0      0.00%    100.00% # Request fanout histogram
system.tol2bus.snoop_fanout::overflows              0      0.00%    100.00% # Request fanout histogram
system.tol2bus.snoop_fanout::min_value              0                       # Request fanout histogram
system.tol2bus.snoop_fanout::max_value              0                       # Request fanout histogram
system.tol2bus.snoop_fanout::total              28585                       # Request fanout histogram
system.tol2bus.reqLayer0.occupancy           27760000                       # Layer occupancy (ticks)
system.tol2bus.reqLayer0.utilization              0.2                       # Layer utilization (%)
system.tol2bus.respLayer1.occupancy          21460500                       # Layer occupancy (ticks)
system.tol2bus.respLayer1.utilization             0.1                       # Layer utilization (%)

---------- End Simulation Statistics   ----------
