
---------- Begin Simulation Statistics ----------
sim_seconds                                  0.015267                       # Number of seconds simulated
sim_ticks                                 15267344125                       # Number of ticks simulated
final_tick                               3358815707500                       # Number of ticks from beginning of simulation (restored from checkpoints and never reset)
sim_freq                                 1000000000000                       # Frequency of simulated ticks
host_inst_rate                               70321942                       # Simulator instruction rate (inst/s)
host_op_rate                                130405786                       # Simulator op (including micro ops) rate (op/s)
host_tick_rate                              190542645                       # Simulator tick rate (ticks/s)
host_mem_usage                                2332640                       # Number of bytes of host memory used
host_seconds                                    80.13                       # Real time elapsed on the host
sim_insts                                  5634585175                       # Number of instructions simulated
sim_ops                                   10448839689                       # Number of ops (including micro ops) simulated
system.voltage_domain.voltage                       1                       # Voltage in Volts
system.clk_domain.clock                          1000                       # Clock period in ticks
system.mem_ctrls.pwrStateResidencyTicks::UNDEFINED  15267344125                       # Cumulative time (in ticks) in various power states
system.mem_ctrls.bytes_read::cpu0.inst             64                       # Number of bytes read from this memory
system.mem_ctrls.bytes_read::cpu0.data       10723712                       # Number of bytes read from this memory
system.mem_ctrls.bytes_read::total           10723776                       # Number of bytes read from this memory
system.mem_ctrls.bytes_inst_read::cpu0.inst           64                       # Number of instructions bytes read from this memory
system.mem_ctrls.bytes_inst_read::total            64                       # Number of instructions bytes read from this memory
system.mem_ctrls.bytes_written::writebacks        42624                       # Number of bytes written to this memory
system.mem_ctrls.bytes_written::total           42624                       # Number of bytes written to this memory
system.mem_ctrls.num_reads::cpu0.inst               1                       # Number of read requests responded to by this memory
system.mem_ctrls.num_reads::cpu0.data          167558                       # Number of read requests responded to by this memory
system.mem_ctrls.num_reads::total              167559                       # Number of read requests responded to by this memory
system.mem_ctrls.num_writes::writebacks           666                       # Number of write requests responded to by this memory
system.mem_ctrls.num_writes::total                666                       # Number of write requests responded to by this memory
system.mem_ctrls.bw_read::cpu0.inst              4192                       # Total read bandwidth from this memory (bytes/s)
system.mem_ctrls.bw_read::cpu0.data         702395381                       # Total read bandwidth from this memory (bytes/s)
system.mem_ctrls.bw_read::total             702399573                       # Total read bandwidth from this memory (bytes/s)
system.mem_ctrls.bw_inst_read::cpu0.inst         4192                       # Instruction read bandwidth from this memory (bytes/s)
system.mem_ctrls.bw_inst_read::total             4192                       # Instruction read bandwidth from this memory (bytes/s)
system.mem_ctrls.bw_write::writebacks         2791841                       # Write bandwidth from this memory (bytes/s)
system.mem_ctrls.bw_write::total              2791841                       # Write bandwidth from this memory (bytes/s)
system.mem_ctrls.bw_total::writebacks         2791841                       # Total bandwidth to/from this memory (bytes/s)
system.mem_ctrls.bw_total::cpu0.inst             4192                       # Total bandwidth to/from this memory (bytes/s)
system.mem_ctrls.bw_total::cpu0.data        702395381                       # Total bandwidth to/from this memory (bytes/s)
system.mem_ctrls.bw_total::total            705191415                       # Total bandwidth to/from this memory (bytes/s)
system.mem_ctrls.readReqs                      167558                       # Number of read requests accepted
system.mem_ctrls.writeReqs                        666                       # Number of write requests accepted
system.mem_ctrls.readBursts                    167558                       # Number of DRAM read bursts, including those serviced by the write queue
system.mem_ctrls.writeBursts                      666                       # Number of DRAM write bursts, including those merged in the write queue
system.mem_ctrls.bytesReadDRAM               10718592                       # Total number of bytes read from DRAM
system.mem_ctrls.bytesReadWrQ                    5120                       # Total number of bytes read from write queue
system.mem_ctrls.bytesWritten                   42112                       # Total number of bytes written to DRAM
system.mem_ctrls.bytesReadSys                10723712                       # Total read bytes from the system interface side
system.mem_ctrls.bytesWrittenSys                42624                       # Total written bytes from the system interface side
system.mem_ctrls.servicedByWrQ                     80                       # Number of DRAM read bursts serviced by the write queue
system.mem_ctrls.mergedWrBursts                     0                       # Number of DRAM write bursts merged with an existing one
system.mem_ctrls.neitherReadNorWriteReqs            0                       # Number of requests that are neither read nor write
system.mem_ctrls.perBankRdBursts::0             10469                       # Per bank write bursts
system.mem_ctrls.perBankRdBursts::1             10501                       # Per bank write bursts
system.mem_ctrls.perBankRdBursts::2             10358                       # Per bank write bursts
system.mem_ctrls.perBankRdBursts::3             10129                       # Per bank write bursts
system.mem_ctrls.perBankRdBursts::4             10032                       # Per bank write bursts
system.mem_ctrls.perBankRdBursts::5             10044                       # Per bank write bursts
system.mem_ctrls.perBankRdBursts::6              9926                       # Per bank write bursts
system.mem_ctrls.perBankRdBursts::7              9926                       # Per bank write bursts
system.mem_ctrls.perBankRdBursts::8             10209                       # Per bank write bursts
system.mem_ctrls.perBankRdBursts::9             10189                       # Per bank write bursts
system.mem_ctrls.perBankRdBursts::10            10278                       # Per bank write bursts
system.mem_ctrls.perBankRdBursts::11            10739                       # Per bank write bursts
system.mem_ctrls.perBankRdBursts::12            11323                       # Per bank write bursts
system.mem_ctrls.perBankRdBursts::13            11233                       # Per bank write bursts
system.mem_ctrls.perBankRdBursts::14            11248                       # Per bank write bursts
system.mem_ctrls.perBankRdBursts::15            10874                       # Per bank write bursts
system.mem_ctrls.perBankWrBursts::0               127                       # Per bank write bursts
system.mem_ctrls.perBankWrBursts::1               115                       # Per bank write bursts
system.mem_ctrls.perBankWrBursts::2                83                       # Per bank write bursts
system.mem_ctrls.perBankWrBursts::3                13                       # Per bank write bursts
system.mem_ctrls.perBankWrBursts::4                 9                       # Per bank write bursts
system.mem_ctrls.perBankWrBursts::5                40                       # Per bank write bursts
system.mem_ctrls.perBankWrBursts::6                 0                       # Per bank write bursts
system.mem_ctrls.perBankWrBursts::7                26                       # Per bank write bursts
system.mem_ctrls.perBankWrBursts::8                 0                       # Per bank write bursts
system.mem_ctrls.perBankWrBursts::9                 0                       # Per bank write bursts
system.mem_ctrls.perBankWrBursts::10                0                       # Per bank write bursts
system.mem_ctrls.perBankWrBursts::11                3                       # Per bank write bursts
system.mem_ctrls.perBankWrBursts::12               98                       # Per bank write bursts
system.mem_ctrls.perBankWrBursts::13                8                       # Per bank write bursts
system.mem_ctrls.perBankWrBursts::14               32                       # Per bank write bursts
system.mem_ctrls.perBankWrBursts::15              104                       # Per bank write bursts
system.mem_ctrls.numRdRetry                         0                       # Number of times read queue was full causing retry
system.mem_ctrls.numWrRetry                         0                       # Number of times write queue was full causing retry
system.mem_ctrls.totGap                   15267256000                       # Total gap between requests
system.mem_ctrls.readPktSize::0                     0                       # Read request sizes (log2)
system.mem_ctrls.readPktSize::1                     0                       # Read request sizes (log2)
system.mem_ctrls.readPktSize::2                     0                       # Read request sizes (log2)
system.mem_ctrls.readPktSize::3                     0                       # Read request sizes (log2)
system.mem_ctrls.readPktSize::4                     0                       # Read request sizes (log2)
system.mem_ctrls.readPktSize::5                     0                       # Read request sizes (log2)
system.mem_ctrls.readPktSize::6                167558                       # Read request sizes (log2)
system.mem_ctrls.writePktSize::0                    0                       # Write request sizes (log2)
system.mem_ctrls.writePktSize::1                    0                       # Write request sizes (log2)
system.mem_ctrls.writePktSize::2                    0                       # Write request sizes (log2)
system.mem_ctrls.writePktSize::3                    0                       # Write request sizes (log2)
system.mem_ctrls.writePktSize::4                    0                       # Write request sizes (log2)
system.mem_ctrls.writePktSize::5                    0                       # Write request sizes (log2)
system.mem_ctrls.writePktSize::6                  666                       # Write request sizes (log2)
system.mem_ctrls.rdQLenPdf::0                  129308                       # What read queue length does an incoming req see
system.mem_ctrls.rdQLenPdf::1                   35481                       # What read queue length does an incoming req see
system.mem_ctrls.rdQLenPdf::2                    2603                       # What read queue length does an incoming req see
system.mem_ctrls.rdQLenPdf::3                      86                       # What read queue length does an incoming req see
system.mem_ctrls.rdQLenPdf::4                       0                       # What read queue length does an incoming req see
system.mem_ctrls.rdQLenPdf::5                       0                       # What read queue length does an incoming req see
system.mem_ctrls.rdQLenPdf::6                       0                       # What read queue length does an incoming req see
system.mem_ctrls.rdQLenPdf::7                       0                       # What read queue length does an incoming req see
system.mem_ctrls.rdQLenPdf::8                       0                       # What read queue length does an incoming req see
system.mem_ctrls.rdQLenPdf::9                       0                       # What read queue length does an incoming req see
system.mem_ctrls.rdQLenPdf::10                      0                       # What read queue length does an incoming req see
system.mem_ctrls.rdQLenPdf::11                      0                       # What read queue length does an incoming req see
system.mem_ctrls.rdQLenPdf::12                      0                       # What read queue length does an incoming req see
system.mem_ctrls.rdQLenPdf::13                      0                       # What read queue length does an incoming req see
system.mem_ctrls.rdQLenPdf::14                      0                       # What read queue length does an incoming req see
system.mem_ctrls.rdQLenPdf::15                      0                       # What read queue length does an incoming req see
system.mem_ctrls.rdQLenPdf::16                      0                       # What read queue length does an incoming req see
system.mem_ctrls.rdQLenPdf::17                      0                       # What read queue length does an incoming req see
system.mem_ctrls.rdQLenPdf::18                      0                       # What read queue length does an incoming req see
system.mem_ctrls.rdQLenPdf::19                      0                       # What read queue length does an incoming req see
system.mem_ctrls.rdQLenPdf::20                      0                       # What read queue length does an incoming req see
system.mem_ctrls.rdQLenPdf::21                      0                       # What read queue length does an incoming req see
system.mem_ctrls.rdQLenPdf::22                      0                       # What read queue length does an incoming req see
system.mem_ctrls.rdQLenPdf::23                      0                       # What read queue length does an incoming req see
system.mem_ctrls.rdQLenPdf::24                      0                       # What read queue length does an incoming req see
system.mem_ctrls.rdQLenPdf::25                      0                       # What read queue length does an incoming req see
system.mem_ctrls.rdQLenPdf::26                      0                       # What read queue length does an incoming req see
system.mem_ctrls.rdQLenPdf::27                      0                       # What read queue length does an incoming req see
system.mem_ctrls.rdQLenPdf::28                      0                       # What read queue length does an incoming req see
system.mem_ctrls.rdQLenPdf::29                      0                       # What read queue length does an incoming req see
system.mem_ctrls.rdQLenPdf::30                      0                       # What read queue length does an incoming req see
system.mem_ctrls.rdQLenPdf::31                      0                       # What read queue length does an incoming req see
system.mem_ctrls.wrQLenPdf::0                       0                       # What write queue length does an incoming req see
system.mem_ctrls.wrQLenPdf::1                       0                       # What write queue length does an incoming req see
system.mem_ctrls.wrQLenPdf::2                       0                       # What write queue length does an incoming req see
system.mem_ctrls.wrQLenPdf::3                       0                       # What write queue length does an incoming req see
system.mem_ctrls.wrQLenPdf::4                       0                       # What write queue length does an incoming req see
system.mem_ctrls.wrQLenPdf::5                       0                       # What write queue length does an incoming req see
system.mem_ctrls.wrQLenPdf::6                       0                       # What write queue length does an incoming req see
system.mem_ctrls.wrQLenPdf::7                       0                       # What write queue length does an incoming req see
system.mem_ctrls.wrQLenPdf::8                       0                       # What write queue length does an incoming req see
system.mem_ctrls.wrQLenPdf::9                       0                       # What write queue length does an incoming req see
system.mem_ctrls.wrQLenPdf::10                      0                       # What write queue length does an incoming req see
system.mem_ctrls.wrQLenPdf::11                      0                       # What write queue length does an incoming req see
system.mem_ctrls.wrQLenPdf::12                      0                       # What write queue length does an incoming req see
system.mem_ctrls.wrQLenPdf::13                      0                       # What write queue length does an incoming req see
system.mem_ctrls.wrQLenPdf::14                      0                       # What write queue length does an incoming req see
system.mem_ctrls.wrQLenPdf::15                      1                       # What write queue length does an incoming req see
system.mem_ctrls.wrQLenPdf::16                      1                       # What write queue length does an incoming req see
system.mem_ctrls.wrQLenPdf::17                     41                       # What write queue length does an incoming req see
system.mem_ctrls.wrQLenPdf::18                     41                       # What write queue length does an incoming req see
system.mem_ctrls.wrQLenPdf::19                     41                       # What write queue length does an incoming req see
system.mem_ctrls.wrQLenPdf::20                     41                       # What write queue length does an incoming req see
system.mem_ctrls.wrQLenPdf::21                     41                       # What write queue length does an incoming req see
system.mem_ctrls.wrQLenPdf::22                     41                       # What write queue length does an incoming req see
system.mem_ctrls.wrQLenPdf::23                     42                       # What write queue length does an incoming req see
system.mem_ctrls.wrQLenPdf::24                     42                       # What write queue length does an incoming req see
system.mem_ctrls.wrQLenPdf::25                     42                       # What write queue length does an incoming req see
system.mem_ctrls.wrQLenPdf::26                     42                       # What write queue length does an incoming req see
system.mem_ctrls.wrQLenPdf::27                     42                       # What write queue length does an incoming req see
system.mem_ctrls.wrQLenPdf::28                     42                       # What write queue length does an incoming req see
system.mem_ctrls.wrQLenPdf::29                     42                       # What write queue length does an incoming req see
system.mem_ctrls.wrQLenPdf::30                     42                       # What write queue length does an incoming req see
system.mem_ctrls.wrQLenPdf::31                     41                       # What write queue length does an incoming req see
system.mem_ctrls.wrQLenPdf::32                     41                       # What write queue length does an incoming req see
system.mem_ctrls.wrQLenPdf::33                      0                       # What write queue length does an incoming req see
system.mem_ctrls.wrQLenPdf::34                      0                       # What write queue length does an incoming req see
system.mem_ctrls.wrQLenPdf::35                      0                       # What write queue length does an incoming req see
system.mem_ctrls.wrQLenPdf::36                      0                       # What write queue length does an incoming req see
system.mem_ctrls.wrQLenPdf::37                      0                       # What write queue length does an incoming req see
system.mem_ctrls.wrQLenPdf::38                      0                       # What write queue length does an incoming req see
system.mem_ctrls.wrQLenPdf::39                      0                       # What write queue length does an incoming req see
system.mem_ctrls.wrQLenPdf::40                      0                       # What write queue length does an incoming req see
system.mem_ctrls.wrQLenPdf::41                      0                       # What write queue length does an incoming req see
system.mem_ctrls.wrQLenPdf::42                      0                       # What write queue length does an incoming req see
system.mem_ctrls.wrQLenPdf::43                      0                       # What write queue length does an incoming req see
system.mem_ctrls.wrQLenPdf::44                      0                       # What write queue length does an incoming req see
system.mem_ctrls.wrQLenPdf::45                      0                       # What write queue length does an incoming req see
system.mem_ctrls.wrQLenPdf::46                      0                       # What write queue length does an incoming req see
system.mem_ctrls.wrQLenPdf::47                      0                       # What write queue length does an incoming req see
system.mem_ctrls.wrQLenPdf::48                      0                       # What write queue length does an incoming req see
system.mem_ctrls.wrQLenPdf::49                      0                       # What write queue length does an incoming req see
system.mem_ctrls.wrQLenPdf::50                      0                       # What write queue length does an incoming req see
system.mem_ctrls.wrQLenPdf::51                      0                       # What write queue length does an incoming req see
system.mem_ctrls.wrQLenPdf::52                      0                       # What write queue length does an incoming req see
system.mem_ctrls.wrQLenPdf::53                      0                       # What write queue length does an incoming req see
system.mem_ctrls.wrQLenPdf::54                      0                       # What write queue length does an incoming req see
system.mem_ctrls.wrQLenPdf::55                      0                       # What write queue length does an incoming req see
system.mem_ctrls.wrQLenPdf::56                      0                       # What write queue length does an incoming req see
system.mem_ctrls.wrQLenPdf::57                      0                       # What write queue length does an incoming req see
system.mem_ctrls.wrQLenPdf::58                      0                       # What write queue length does an incoming req see
system.mem_ctrls.wrQLenPdf::59                      0                       # What write queue length does an incoming req see
system.mem_ctrls.wrQLenPdf::60                      0                       # What write queue length does an incoming req see
system.mem_ctrls.wrQLenPdf::61                      0                       # What write queue length does an incoming req see
system.mem_ctrls.wrQLenPdf::62                      0                       # What write queue length does an incoming req see
system.mem_ctrls.wrQLenPdf::63                      0                       # What write queue length does an incoming req see
system.mem_ctrls.bytesPerActivate::samples        93724                       # Bytes accessed per row activation
system.mem_ctrls.bytesPerActivate::mean    114.805855                       # Bytes accessed per row activation
system.mem_ctrls.bytesPerActivate::gmean    99.560134                       # Bytes accessed per row activation
system.mem_ctrls.bytesPerActivate::stdev    69.067532                       # Bytes accessed per row activation
system.mem_ctrls.bytesPerActivate::0-127        48973     52.25%     52.25% # Bytes accessed per row activation
system.mem_ctrls.bytesPerActivate::128-255        37455     39.96%     92.22% # Bytes accessed per row activation
system.mem_ctrls.bytesPerActivate::256-383         6518      6.95%     99.17% # Bytes accessed per row activation
system.mem_ctrls.bytesPerActivate::384-511          688      0.73%     99.90% # Bytes accessed per row activation
system.mem_ctrls.bytesPerActivate::512-639           61      0.07%     99.97% # Bytes accessed per row activation
system.mem_ctrls.bytesPerActivate::640-767           11      0.01%     99.98% # Bytes accessed per row activation
system.mem_ctrls.bytesPerActivate::768-895           11      0.01%     99.99% # Bytes accessed per row activation
system.mem_ctrls.bytesPerActivate::896-1023            5      0.01%    100.00% # Bytes accessed per row activation
system.mem_ctrls.bytesPerActivate::1024-1151            2      0.00%    100.00% # Bytes accessed per row activation
system.mem_ctrls.bytesPerActivate::total        93724                       # Bytes accessed per row activation
system.mem_ctrls.rdPerTurnAround::samples           41                       # Reads before turning the bus around for writes
system.mem_ctrls.rdPerTurnAround::mean    4013.073171                       # Reads before turning the bus around for writes
system.mem_ctrls.rdPerTurnAround::gmean   3841.609505                       # Reads before turning the bus around for writes
system.mem_ctrls.rdPerTurnAround::stdev   1157.628209                       # Reads before turning the bus around for writes
system.mem_ctrls.rdPerTurnAround::1792-2047            2      4.88%      4.88% # Reads before turning the bus around for writes
system.mem_ctrls.rdPerTurnAround::2048-2303            1      2.44%      7.32% # Reads before turning the bus around for writes
system.mem_ctrls.rdPerTurnAround::2304-2559            2      4.88%     12.20% # Reads before turning the bus around for writes
system.mem_ctrls.rdPerTurnAround::2560-2815            1      2.44%     14.63% # Reads before turning the bus around for writes
system.mem_ctrls.rdPerTurnAround::2816-3071            1      2.44%     17.07% # Reads before turning the bus around for writes
system.mem_ctrls.rdPerTurnAround::3072-3327            4      9.76%     26.83% # Reads before turning the bus around for writes
system.mem_ctrls.rdPerTurnAround::3328-3583            6     14.63%     41.46% # Reads before turning the bus around for writes
system.mem_ctrls.rdPerTurnAround::3584-3839            3      7.32%     48.78% # Reads before turning the bus around for writes
system.mem_ctrls.rdPerTurnAround::3840-4095            4      9.76%     58.54% # Reads before turning the bus around for writes
system.mem_ctrls.rdPerTurnAround::4096-4351            3      7.32%     65.85% # Reads before turning the bus around for writes
system.mem_ctrls.rdPerTurnAround::4352-4607            2      4.88%     70.73% # Reads before turning the bus around for writes
system.mem_ctrls.rdPerTurnAround::4608-4863            1      2.44%     73.17% # Reads before turning the bus around for writes
system.mem_ctrls.rdPerTurnAround::4864-5119            1      2.44%     75.61% # Reads before turning the bus around for writes
system.mem_ctrls.rdPerTurnAround::5120-5375            3      7.32%     82.93% # Reads before turning the bus around for writes
system.mem_ctrls.rdPerTurnAround::5376-5631            5     12.20%     95.12% # Reads before turning the bus around for writes
system.mem_ctrls.rdPerTurnAround::5888-6143            1      2.44%     97.56% # Reads before turning the bus around for writes
system.mem_ctrls.rdPerTurnAround::6400-6655            1      2.44%    100.00% # Reads before turning the bus around for writes
system.mem_ctrls.rdPerTurnAround::total            41                       # Reads before turning the bus around for writes
system.mem_ctrls.wrPerTurnAround::samples           41                       # Writes before turning the bus around for reads
system.mem_ctrls.wrPerTurnAround::mean      16.048780                       # Writes before turning the bus around for reads
system.mem_ctrls.wrPerTurnAround::gmean     16.046030                       # Writes before turning the bus around for reads
system.mem_ctrls.wrPerTurnAround::stdev      0.312348                       # Writes before turning the bus around for reads
system.mem_ctrls.wrPerTurnAround::16               40     97.56%     97.56% # Writes before turning the bus around for reads
system.mem_ctrls.wrPerTurnAround::18                1      2.44%    100.00% # Writes before turning the bus around for reads
system.mem_ctrls.wrPerTurnAround::total            41                       # Writes before turning the bus around for reads
system.mem_ctrls.totQLat                   4259910750                       # Total ticks spent queuing
system.mem_ctrls.totMemAccLat              7400123250                       # Total ticks spent from burst creation until serviced by the DRAM
system.mem_ctrls.totBusLat                  837390000                       # Total ticks spent in databus transfers
system.mem_ctrls.avgQLat                     25435.64                       # Average queueing delay per DRAM burst
system.mem_ctrls.avgBusLat                    5000.00                       # Average bus latency per DRAM burst
system.mem_ctrls.avgMemAccLat                44185.64                       # Average memory access latency per DRAM burst
system.mem_ctrls.avgRdBW                       702.06                       # Average DRAM read bandwidth in MiByte/s
system.mem_ctrls.avgWrBW                         2.76                       # Average achieved write bandwidth in MiByte/s
system.mem_ctrls.avgRdBWSys                    702.40                       # Average system read bandwidth in MiByte/s
system.mem_ctrls.avgWrBWSys                      2.79                       # Average system write bandwidth in MiByte/s
system.mem_ctrls.peakBW                      12800.00                       # Theoretical peak bandwidth in MiByte/s
system.mem_ctrls.busUtil                         5.51                       # Data bus utilization in percentage
system.mem_ctrls.busUtilRead                     5.48                       # Data bus utilization in percentage for reads
system.mem_ctrls.busUtilWrite                    0.02                       # Data bus utilization in percentage for writes
system.mem_ctrls.avgRdQLen                       1.27                       # Average read queue length when enqueuing
system.mem_ctrls.avgWrQLen                      25.66                       # Average write queue length when enqueuing
system.mem_ctrls.readRowHits                    73864                       # Number of row buffer hits during reads
system.mem_ctrls.writeRowHits                     543                       # Number of row buffer hits during writes
system.mem_ctrls.readRowHitRate                 44.10                       # Row buffer hit rate for reads
system.mem_ctrls.writeRowHitRate                81.53                       # Row buffer hit rate for writes
system.mem_ctrls.avgGap                      90755.52                       # Average gap between requests
system.mem_ctrls.pageHitRate                    44.25                       # Row buffer hit rate, read and write combined
system.mem_ctrls_0.actEnergy                326733540                       # Energy for activate commands per rank (pJ)
system.mem_ctrls_0.preEnergy                173640225                       # Energy for precharge commands per rank (pJ)
system.mem_ctrls_0.readEnergy               581088900                       # Energy for read commands per rank (pJ)
system.mem_ctrls_0.writeEnergy                2155860                       # Energy for write commands per rank (pJ)
system.mem_ctrls_0.refreshEnergy         1206538320.000000                       # Energy for refresh commands per rank (pJ)
system.mem_ctrls_0.actBackEnergy           1455801660                       # Energy for active background per rank (pJ)
system.mem_ctrls_0.preBackEnergy             24909120                       # Energy for precharge background per rank (pJ)
system.mem_ctrls_0.actPowerDownEnergy      5286552780                       # Energy for active power-down per rank (pJ)
system.mem_ctrls_0.prePowerDownEnergy       158899680                       # Energy for precharge power-down per rank (pJ)
system.mem_ctrls_0.selfRefreshEnergy     2331120.000000                       # Energy for self refresh per rank (pJ)
system.mem_ctrls_0.totalEnergy             9218661615                       # Total energy per rank (pJ)
system.mem_ctrls_0.averagePower            603.815670                       # Core power per rank (mW)
system.mem_ctrls_0.totalIdleTime          12009056625                       # Total Idle time Per DRAM Rank
system.mem_ctrls_0.memoryStateTime::IDLE     10599500                       # Time in different power states
system.mem_ctrls_0.memoryStateTime::REF     510398000                       # Time in different power states
system.mem_ctrls_0.memoryStateTime::SREF      2784750                       # Time in different power states
system.mem_ctrls_0.memoryStateTime::PRE_PDN    413848750                       # Time in different power states
system.mem_ctrls_0.memoryStateTime::ACT    2737236250                       # Time in different power states
system.mem_ctrls_0.memoryStateTime::ACT_PDN  11592476875                       # Time in different power states
system.mem_ctrls_1.actEnergy                342491520                       # Energy for activate commands per rank (pJ)
system.mem_ctrls_1.preEnergy                182042355                       # Energy for precharge commands per rank (pJ)
system.mem_ctrls_1.readEnergy               614704020                       # Energy for read commands per rank (pJ)
system.mem_ctrls_1.writeEnergy                1278900                       # Energy for write commands per rank (pJ)
system.mem_ctrls_1.refreshEnergy         1205309040.000000                       # Energy for refresh commands per rank (pJ)
system.mem_ctrls_1.actBackEnergy           1523015490                       # Energy for active background per rank (pJ)
system.mem_ctrls_1.preBackEnergy             24664800                       # Energy for precharge background per rank (pJ)
system.mem_ctrls_1.actPowerDownEnergy      5226881190                       # Energy for active power-down per rank (pJ)
system.mem_ctrls_1.prePowerDownEnergy       150218400                       # Energy for precharge power-down per rank (pJ)
system.mem_ctrls_1.selfRefreshEnergy          2835540                       # Energy for self refresh per rank (pJ)
system.mem_ctrls_1.totalEnergy             9273441255                       # Total energy per rank (pJ)
system.mem_ctrls_1.averagePower            607.403696                       # Core power per rank (mW)
system.mem_ctrls_1.totalIdleTime          11863099000                       # Total Idle time Per DRAM Rank
system.mem_ctrls_1.memoryStateTime::IDLE      9906000                       # Time in different power states
system.mem_ctrls_1.memoryStateTime::REF     509866000                       # Time in different power states
system.mem_ctrls_1.memoryStateTime::SREF      9513500                       # Time in different power states
system.mem_ctrls_1.memoryStateTime::PRE_PDN    391306000                       # Time in different power states
system.mem_ctrls_1.memoryStateTime::ACT    2884292875                       # Time in different power states
system.mem_ctrls_1.memoryStateTime::ACT_PDN  11462459750                       # Time in different power states
system.pwrStateResidencyTicks::UNDEFINED  15267344125                       # Cumulative time (in ticks) in various power states
system.cpu0.branchPred.lookups                2461676                       # Number of BP lookups
system.cpu0.branchPred.condPredicted          2461676                       # Number of conditional branches predicted
system.cpu0.branchPred.condIncorrect           112788                       # Number of conditional branches incorrect
system.cpu0.branchPred.BTBLookups             1870952                       # Number of BTB lookups
system.cpu0.branchPred.BTBHits                      0                       # Number of BTB hits
system.cpu0.branchPred.BTBCorrect                   0                       # Number of correct BTB predictions (this stat may not work properly.
system.cpu0.branchPred.BTBHitPct             0.000000                       # BTB Hit Percentage
system.cpu0.branchPred.usedRAS                  82978                       # Number of times the RAS was used to get a target.
system.cpu0.branchPred.RASInCorrect             11719                       # Number of incorrect RAS predictions.
system.cpu0.branchPred.indirectLookups        1870952                       # Number of indirect predictor lookups.
system.cpu0.branchPred.indirectHits           1022995                       # Number of indirect target hits.
system.cpu0.branchPred.indirectMisses          847957                       # Number of indirect misses.
system.cpu0.branchPredindirectMispredicted        38589                       # Number of mispredicted indirect branches.
system.cpu_voltage_domain.voltage                   1                       # Voltage in Volts
system.cpu_clk_domain.clock                       500                       # Clock period in ticks
system.cpu0.dtb.walker.pwrStateResidencyTicks::UNDEFINED  15267344125                       # Cumulative time (in ticks) in various power states
system.cpu0.dtb.rdAccesses                    1189638                       # TLB accesses on read requests
system.cpu0.dtb.wrAccesses                      92686                       # TLB accesses on write requests
system.cpu0.dtb.rdMisses                       229760                       # TLB misses on read requests
system.cpu0.dtb.wrMisses                         1802                       # TLB misses on write requests
system.cpu0.apic_clk_domain.clock                8000                       # Clock period in ticks
system.cpu0.interrupts.pwrStateResidencyTicks::UNDEFINED  15267344125                       # Cumulative time (in ticks) in various power states
system.cpu0.itb.walker.pwrStateResidencyTicks::UNDEFINED  15267344125                       # Cumulative time (in ticks) in various power states
system.cpu0.itb.rdAccesses                          0                       # TLB accesses on read requests
system.cpu0.itb.wrAccesses                    2009621                       # TLB accesses on write requests
system.cpu0.itb.rdMisses                            0                       # TLB misses on read requests
system.cpu0.itb.wrMisses                         6263                       # TLB misses on write requests
system.cpu0.workload.numSyscalls                    0                       # Number of system calls
system.cpu0.pwrStateResidencyTicks::ON    15267344125                       # Cumulative time (in ticks) in various power states
system.cpu0.numCycles                        30534689                       # number of cpu cycles simulated
system.cpu0.numWorkItemsStarted                     0                       # number of work items this cpu started
system.cpu0.numWorkItemsCompleted                   0                       # number of work items this cpu completed
system.cpu0.fetch.icacheStallCycles           2062424                       # Number of cycles fetch is stalled on an Icache miss
system.cpu0.fetch.Insts                       7309840                       # Number of instructions fetch has processed
system.cpu0.fetch.Branches                    2461676                       # Number of branches that fetch encountered
system.cpu0.fetch.predictedBranches           1105973                       # Number of branches that fetch has predicted taken
system.cpu0.fetch.Cycles                     28256311                       # Number of cycles fetch has run and was not squashing or blocked
system.cpu0.fetch.SquashCycles                 229554                       # Number of cycles fetch has spent squashing
system.cpu0.fetch.TlbCycles                      1102                       # Number of cycles fetch has spent waiting for tlb
system.cpu0.fetch.MiscStallCycles                1359                       # Number of cycles fetch has spent waiting on interrupts, or bad addresses, or out of MSHRs
system.cpu0.fetch.PendingTrapStallCycles        53842                       # Number of stall cycles due to pending traps
system.cpu0.fetch.PendingQuiesceStallCycles            1                       # Number of stall cycles due to pending quiesce instructions
system.cpu0.fetch.CacheLines                  2003358                       # Number of cache lines fetched
system.cpu0.fetch.IcacheSquashes                17159                       # Number of outstanding Icache misses that were squashed
system.cpu0.fetch.ItlbSquashes                      7                       # Number of outstanding ITLB misses that were squashed
system.cpu0.fetch.rateDist::samples          30489816                       # Number of instructions fetched each cycle (Total)
system.cpu0.fetch.rateDist::mean             0.483123                       # Number of instructions fetched each cycle (Total)
system.cpu0.fetch.rateDist::stdev            1.734626                       # Number of instructions fetched each cycle (Total)
system.cpu0.fetch.rateDist::underflows              0      0.00%      0.00% # Number of instructions fetched each cycle (Total)
system.cpu0.fetch.rateDist::0                27698475     90.85%     90.85% # Number of instructions fetched each cycle (Total)
system.cpu0.fetch.rateDist::1                   29878      0.10%     90.94% # Number of instructions fetched each cycle (Total)
system.cpu0.fetch.rateDist::2                  961309      3.15%     94.10% # Number of instructions fetched each cycle (Total)
system.cpu0.fetch.rateDist::3                   44622      0.15%     94.24% # Number of instructions fetched each cycle (Total)
system.cpu0.fetch.rateDist::4                  190428      0.62%     94.87% # Number of instructions fetched each cycle (Total)
system.cpu0.fetch.rateDist::5                  116297      0.38%     95.25% # Number of instructions fetched each cycle (Total)
system.cpu0.fetch.rateDist::6                  124495      0.41%     95.66% # Number of instructions fetched each cycle (Total)
system.cpu0.fetch.rateDist::7                   40706      0.13%     95.79% # Number of instructions fetched each cycle (Total)
system.cpu0.fetch.rateDist::8                 1283606      4.21%    100.00% # Number of instructions fetched each cycle (Total)
system.cpu0.fetch.rateDist::overflows               0      0.00%    100.00% # Number of instructions fetched each cycle (Total)
system.cpu0.fetch.rateDist::min_value               0                       # Number of instructions fetched each cycle (Total)
system.cpu0.fetch.rateDist::max_value               8                       # Number of instructions fetched each cycle (Total)
system.cpu0.fetch.rateDist::total            30489816                       # Number of instructions fetched each cycle (Total)
system.cpu0.fetch.branchRate                 0.080619                       # Number of branch fetches per cycle
system.cpu0.fetch.rate                       0.239395                       # Number of inst fetches per cycle
system.cpu0.decode.IdleCycles                 1072522                       # Number of cycles decode is idle
system.cpu0.decode.BlockedCycles             27419971                       # Number of cycles decode is blocked
system.cpu0.decode.RunCycles                  1437153                       # Number of cycles decode is running
system.cpu0.decode.UnblockCycles               445393                       # Number of cycles decode is unblocking
system.cpu0.decode.SquashCycles                114777                       # Number of cycles decode is squashing
system.cpu0.decode.DecodedInsts              12248033                       # Number of instructions handled by decode
system.cpu0.rename.SquashCycles                114777                       # Number of cycles rename is squashing
system.cpu0.rename.IdleCycles                 1226761                       # Number of cycles rename is idle
system.cpu0.rename.BlockCycles               25701013                       # Number of cycles rename is blocking
system.cpu0.rename.serializeStallCycles         23154                       # count of cycles rename stalled for serializing inst
system.cpu0.rename.RunCycles                  1629043                       # Number of cycles rename is running
system.cpu0.rename.UnblockCycles              1795068                       # Number of cycles rename is unblocking
system.cpu0.rename.RenamedInsts              11715217                       # Number of instructions processed by rename
system.cpu0.rename.ROBFullEvents                95970                       # Number of times rename has blocked due to ROB full
system.cpu0.rename.IQFullEvents               1375113                       # Number of times rename has blocked due to IQ full
system.cpu0.rename.LQFullEvents                356131                       # Number of times rename has blocked due to LQ full
system.cpu0.rename.SQFullEvents                  2618                       # Number of times rename has blocked due to SQ full
system.cpu0.rename.RenamedOperands           13968144                       # Number of destination operands rename has renamed
system.cpu0.rename.RenameLookups             32455075                       # Number of register rename lookups that rename has made
system.cpu0.rename.int_rename_lookups        15552001                       # Number of integer rename lookups
system.cpu0.rename.fp_rename_lookups            73394                       # Number of floating rename lookups
system.cpu0.rename.CommittedMaps              4915223                       # Number of HB maps that are committed
system.cpu0.rename.UndoneMaps                 9053048                       # Number of HB maps that are undone due to squashing
system.cpu0.rename.serializingInsts               438                       # count of serializing insts renamed
system.cpu0.rename.tempSerializingInsts           559                       # count of temporary serializing insts renamed
system.cpu0.rename.skidInsts                  2736202                       # count of insts added to the skid buffer
system.cpu0.memDep0.insertedLoads             2070837                       # Number of loads inserted to the mem dependence unit.
system.cpu0.memDep0.insertedStores             134093                       # Number of stores inserted to the mem dependence unit.
system.cpu0.memDep0.conflictingLoads             8590                       # Number of conflicting loads.
system.cpu0.memDep0.conflictingStores            8359                       # Number of conflicting stores.
system.cpu0.iq.iqInstsAdded                  11028064                       # Number of instructions added to the IQ (excludes non-spec)
system.cpu0.iq.iqNonSpecInstsAdded               7607                       # Number of non-speculative instructions added to the IQ
system.cpu0.iq.iqInstsIssued                  7951411                       # Number of instructions issued
system.cpu0.iq.iqSquashedInstsIssued            11907                       # Number of squashed instructions issued
system.cpu0.iq.iqSquashedInstsExamined        6939096                       # Number of squashed instructions iterated over during squash; mainly for profiling
system.cpu0.iq.iqSquashedOperandsExamined     14189793                       # Number of squashed operands that are examined and possibly removed from graph
system.cpu0.iq.iqSquashedNonSpecRemoved          7607                       # Number of squashed non-spec instructions that were removed
system.cpu0.iq.issued_per_cycle::samples     30489816                       # Number of insts issued each cycle
system.cpu0.iq.issued_per_cycle::mean        0.260789                       # Number of insts issued each cycle
system.cpu0.iq.issued_per_cycle::stdev       0.944483                       # Number of insts issued each cycle
system.cpu0.iq.issued_per_cycle::underflows            0      0.00%      0.00% # Number of insts issued each cycle
system.cpu0.iq.issued_per_cycle::0           27411797     89.90%     89.90% # Number of insts issued each cycle
system.cpu0.iq.issued_per_cycle::1            1124755      3.69%     93.59% # Number of insts issued each cycle
system.cpu0.iq.issued_per_cycle::2             643277      2.11%     95.70% # Number of insts issued each cycle
system.cpu0.iq.issued_per_cycle::3             440882      1.45%     97.15% # Number of insts issued each cycle
system.cpu0.iq.issued_per_cycle::4             478538      1.57%     98.72% # Number of insts issued each cycle
system.cpu0.iq.issued_per_cycle::5             167791      0.55%     99.27% # Number of insts issued each cycle
system.cpu0.iq.issued_per_cycle::6             132523      0.43%     99.70% # Number of insts issued each cycle
system.cpu0.iq.issued_per_cycle::7              52813      0.17%     99.88% # Number of insts issued each cycle
system.cpu0.iq.issued_per_cycle::8              37440      0.12%    100.00% # Number of insts issued each cycle
system.cpu0.iq.issued_per_cycle::overflows            0      0.00%    100.00% # Number of insts issued each cycle
system.cpu0.iq.issued_per_cycle::min_value            0                       # Number of insts issued each cycle
system.cpu0.iq.issued_per_cycle::max_value            8                       # Number of insts issued each cycle
system.cpu0.iq.issued_per_cycle::total       30489816                       # Number of insts issued each cycle
system.cpu0.iq.fu_full::No_OpClass                  0      0.00%      0.00% # attempts to use FU when none available
system.cpu0.iq.fu_full::IntAlu                  21958     71.11%     71.11% # attempts to use FU when none available
system.cpu0.iq.fu_full::IntMult                     0      0.00%     71.11% # attempts to use FU when none available
system.cpu0.iq.fu_full::IntDiv                      0      0.00%     71.11% # attempts to use FU when none available
system.cpu0.iq.fu_full::FloatAdd                 2181      7.06%     78.17% # attempts to use FU when none available
system.cpu0.iq.fu_full::FloatCmp                    0      0.00%     78.17% # attempts to use FU when none available
system.cpu0.iq.fu_full::FloatCvt                    0      0.00%     78.17% # attempts to use FU when none available
system.cpu0.iq.fu_full::FloatMult                   0      0.00%     78.17% # attempts to use FU when none available
system.cpu0.iq.fu_full::FloatMultAcc                0      0.00%     78.17% # attempts to use FU when none available
system.cpu0.iq.fu_full::FloatDiv                    0      0.00%     78.17% # attempts to use FU when none available
system.cpu0.iq.fu_full::FloatMisc                   0      0.00%     78.17% # attempts to use FU when none available
system.cpu0.iq.fu_full::FloatSqrt                   0      0.00%     78.17% # attempts to use FU when none available
system.cpu0.iq.fu_full::SimdAdd                     0      0.00%     78.17% # attempts to use FU when none available
system.cpu0.iq.fu_full::SimdAddAcc                  0      0.00%     78.17% # attempts to use FU when none available
system.cpu0.iq.fu_full::SimdAlu                     0      0.00%     78.17% # attempts to use FU when none available
system.cpu0.iq.fu_full::SimdCmp                     0      0.00%     78.17% # attempts to use FU when none available
system.cpu0.iq.fu_full::SimdCvt                     0      0.00%     78.17% # attempts to use FU when none available
system.cpu0.iq.fu_full::SimdMisc                    0      0.00%     78.17% # attempts to use FU when none available
system.cpu0.iq.fu_full::SimdMult                    0      0.00%     78.17% # attempts to use FU when none available
system.cpu0.iq.fu_full::SimdMultAcc                 0      0.00%     78.17% # attempts to use FU when none available
system.cpu0.iq.fu_full::SimdShift                   0      0.00%     78.17% # attempts to use FU when none available
system.cpu0.iq.fu_full::SimdShiftAcc                0      0.00%     78.17% # attempts to use FU when none available
system.cpu0.iq.fu_full::SimdSqrt                    0      0.00%     78.17% # attempts to use FU when none available
system.cpu0.iq.fu_full::SimdFloatAdd                0      0.00%     78.17% # attempts to use FU when none available
system.cpu0.iq.fu_full::SimdFloatAlu                0      0.00%     78.17% # attempts to use FU when none available
system.cpu0.iq.fu_full::SimdFloatCmp                0      0.00%     78.17% # attempts to use FU when none available
system.cpu0.iq.fu_full::SimdFloatCvt                0      0.00%     78.17% # attempts to use FU when none available
system.cpu0.iq.fu_full::SimdFloatDiv                0      0.00%     78.17% # attempts to use FU when none available
system.cpu0.iq.fu_full::SimdFloatMisc               0      0.00%     78.17% # attempts to use FU when none available
system.cpu0.iq.fu_full::SimdFloatMult               0      0.00%     78.17% # attempts to use FU when none available
system.cpu0.iq.fu_full::SimdFloatMultAcc            0      0.00%     78.17% # attempts to use FU when none available
system.cpu0.iq.fu_full::SimdFloatSqrt               0      0.00%     78.17% # attempts to use FU when none available
system.cpu0.iq.fu_full::MemRead                  5934     19.22%     97.39% # attempts to use FU when none available
system.cpu0.iq.fu_full::MemWrite                  521      1.69%     99.08% # attempts to use FU when none available
system.cpu0.iq.fu_full::FloatMemRead              227      0.74%     99.81% # attempts to use FU when none available
system.cpu0.iq.fu_full::FloatMemWrite              58      0.19%    100.00% # attempts to use FU when none available
system.cpu0.iq.fu_full::IprAccess                   0      0.00%    100.00% # attempts to use FU when none available
system.cpu0.iq.fu_full::InstPrefetch                0      0.00%    100.00% # attempts to use FU when none available
system.cpu0.iq.FU_type_0::No_OpClass            29971      0.38%      0.38% # Type of FU issued
system.cpu0.iq.FU_type_0::IntAlu              6518520     81.98%     82.36% # Type of FU issued
system.cpu0.iq.FU_type_0::IntMult                1412      0.02%     82.37% # Type of FU issued
system.cpu0.iq.FU_type_0::IntDiv                19495      0.25%     82.62% # Type of FU issued
system.cpu0.iq.FU_type_0::FloatAdd              27744      0.35%     82.97% # Type of FU issued
system.cpu0.iq.FU_type_0::FloatCmp                  0      0.00%     82.97% # Type of FU issued
system.cpu0.iq.FU_type_0::FloatCvt                  0      0.00%     82.97% # Type of FU issued
system.cpu0.iq.FU_type_0::FloatMult                 0      0.00%     82.97% # Type of FU issued
system.cpu0.iq.FU_type_0::FloatMultAcc              0      0.00%     82.97% # Type of FU issued
system.cpu0.iq.FU_type_0::FloatDiv                  0      0.00%     82.97% # Type of FU issued
system.cpu0.iq.FU_type_0::FloatMisc                 0      0.00%     82.97% # Type of FU issued
system.cpu0.iq.FU_type_0::FloatSqrt                 0      0.00%     82.97% # Type of FU issued
system.cpu0.iq.FU_type_0::SimdAdd                   0      0.00%     82.97% # Type of FU issued
system.cpu0.iq.FU_type_0::SimdAddAcc                0      0.00%     82.97% # Type of FU issued
system.cpu0.iq.FU_type_0::SimdAlu                   0      0.00%     82.97% # Type of FU issued
system.cpu0.iq.FU_type_0::SimdCmp                   0      0.00%     82.97% # Type of FU issued
system.cpu0.iq.FU_type_0::SimdCvt                   0      0.00%     82.97% # Type of FU issued
system.cpu0.iq.FU_type_0::SimdMisc                  0      0.00%     82.97% # Type of FU issued
system.cpu0.iq.FU_type_0::SimdMult                  0      0.00%     82.97% # Type of FU issued
system.cpu0.iq.FU_type_0::SimdMultAcc               0      0.00%     82.97% # Type of FU issued
system.cpu0.iq.FU_type_0::SimdShift                 0      0.00%     82.97% # Type of FU issued
system.cpu0.iq.FU_type_0::SimdShiftAcc              0      0.00%     82.97% # Type of FU issued
system.cpu0.iq.FU_type_0::SimdSqrt                  0      0.00%     82.97% # Type of FU issued
system.cpu0.iq.FU_type_0::SimdFloatAdd              0      0.00%     82.97% # Type of FU issued
system.cpu0.iq.FU_type_0::SimdFloatAlu              0      0.00%     82.97% # Type of FU issued
system.cpu0.iq.FU_type_0::SimdFloatCmp              0      0.00%     82.97% # Type of FU issued
system.cpu0.iq.FU_type_0::SimdFloatCvt              0      0.00%     82.97% # Type of FU issued
system.cpu0.iq.FU_type_0::SimdFloatDiv              0      0.00%     82.97% # Type of FU issued
system.cpu0.iq.FU_type_0::SimdFloatMisc             0      0.00%     82.97% # Type of FU issued
system.cpu0.iq.FU_type_0::SimdFloatMult             0      0.00%     82.97% # Type of FU issued
system.cpu0.iq.FU_type_0::SimdFloatMultAcc            0      0.00%     82.97% # Type of FU issued
system.cpu0.iq.FU_type_0::SimdFloatSqrt             0      0.00%     82.97% # Type of FU issued
system.cpu0.iq.FU_type_0::MemRead             1249277     15.71%     98.68% # Type of FU issued
system.cpu0.iq.FU_type_0::MemWrite              99673      1.25%     99.93% # Type of FU issued
system.cpu0.iq.FU_type_0::FloatMemRead           5177      0.07%    100.00% # Type of FU issued
system.cpu0.iq.FU_type_0::FloatMemWrite           142      0.00%    100.00% # Type of FU issued
system.cpu0.iq.FU_type_0::IprAccess                 0      0.00%    100.00% # Type of FU issued
system.cpu0.iq.FU_type_0::InstPrefetch              0      0.00%    100.00% # Type of FU issued
system.cpu0.iq.FU_type_0::total               7951411                       # Type of FU issued
system.cpu0.iq.rate                          0.260406                       # Inst issue rate
system.cpu0.iq.fu_busy_cnt                      30879                       # FU busy when requested
system.cpu0.iq.fu_busy_rate                  0.003883                       # FU busy rate (busy events/executed inst)
system.cpu0.iq.int_inst_queue_reads          46366361                       # Number of integer instruction queue reads
system.cpu0.iq.int_inst_queue_writes         17913703                       # Number of integer instruction queue writes
system.cpu0.iq.int_inst_queue_wakeup_accesses      7580368                       # Number of integer instruction queue wakeup accesses
system.cpu0.iq.fp_inst_queue_reads              69063                       # Number of floating instruction queue reads
system.cpu0.iq.fp_inst_queue_writes             61064                       # Number of floating instruction queue writes
system.cpu0.iq.fp_inst_queue_wakeup_accesses        30360                       # Number of floating instruction queue wakeup accesses
system.cpu0.iq.vec_inst_queue_reads                 0                       # Number of vector instruction queue reads
system.cpu0.iq.vec_inst_queue_writes                0                       # Number of vector instruction queue writes
system.cpu0.iq.vec_inst_queue_wakeup_accesses            0                       # Number of vector instruction queue wakeup accesses
system.cpu0.iq.int_alu_accesses               7916784                       # Number of integer alu accesses
system.cpu0.iq.fp_alu_accesses                  35535                       # Number of floating point alu accesses
system.cpu0.iq.vec_alu_accesses                     0                       # Number of vector alu accesses
system.cpu0.iew.lsq.thread0.forwLoads            8897                       # Number of loads that had data forwarded from stores
system.cpu0.iew.lsq.thread0.invAddrLoads            0                       # Number of loads ignored due to an invalid address
system.cpu0.iew.lsq.thread0.squashedLoads      1319877                       # Number of loads squashed
system.cpu0.iew.lsq.thread0.ignoredResponses          262                       # Number of memory responses ignored because the instruction is squashed
system.cpu0.iew.lsq.thread0.memOrderViolation            0                       # Number of memory ordering violations
system.cpu0.iew.lsq.thread0.squashedStores        76652                       # Number of stores squashed
system.cpu0.iew.lsq.thread0.invAddrSwpfs            0                       # Number of software prefetches ignored due to an invalid address
system.cpu0.iew.lsq.thread0.blockedLoads            0                       # Number of blocked loads due to partial load-store forwarding
system.cpu0.iew.lsq.thread0.rescheduledLoads           73                       # Number of loads that were rescheduled
system.cpu0.iew.lsq.thread0.cacheBlocked         2044                       # Number of times an access to memory failed due to the cache being blocked
system.cpu0.iew.iewIdleCycles                       0                       # Number of cycles IEW is idle
system.cpu0.iew.iewSquashCycles                114777                       # Number of cycles IEW is squashing
system.cpu0.iew.iewBlockCycles               23325160                       # Number of cycles IEW is blocking
system.cpu0.iew.iewUnblockCycles               342317                       # Number of cycles IEW is unblocking
system.cpu0.iew.iewDispatchedInsts           11035671                       # Number of instructions dispatched to IQ
system.cpu0.iew.iewDispSquashedInsts             7399                       # Number of squashed instructions skipped by dispatch
system.cpu0.iew.iewDispLoadInsts              2070837                       # Number of dispatched load instructions
system.cpu0.iew.iewDispStoreInsts              134093                       # Number of dispatched store instructions
system.cpu0.iew.iewDispNonSpecInsts              2813                       # Number of dispatched non-speculative instructions
system.cpu0.iew.iewIQFullEvents                 24904                       # Number of times the IQ has become full, causing a stall
system.cpu0.iew.iewLSQFullEvents                88921                       # Number of times the LSQ has become full, causing a stall
system.cpu0.iew.memOrderViolationEvents             0                       # Number of memory order violations
system.cpu0.iew.predictedTakenIncorrect         59048                       # Number of branches that were predicted taken incorrectly
system.cpu0.iew.predictedNotTakenIncorrect        68934                       # Number of branches that were predicted not taken incorrectly
system.cpu0.iew.branchMispredicts              127982                       # Number of branch mispredicts detected at execute
system.cpu0.iew.iewExecutedInsts              7780094                       # Number of executed instructions
system.cpu0.iew.iewExecLoadInsts              1189091                       # Number of load instructions executed
system.cpu0.iew.iewExecSquashedInsts           171317                       # Number of squashed instructions skipped in execute
system.cpu0.iew.exec_swp                            0                       # number of swp insts executed
system.cpu0.iew.exec_nop                            0                       # number of nop insts executed
system.cpu0.iew.exec_refs                     1281755                       # number of memory reference insts executed
system.cpu0.iew.exec_branches                  919262                       # Number of branches executed
system.cpu0.iew.exec_stores                     92664                       # Number of stores executed
system.cpu0.iew.exec_rate                    0.254795                       # Inst execution rate
system.cpu0.iew.wb_sent                       7642383                       # cumulative count of insts sent to commit
system.cpu0.iew.wb_count                      7610728                       # cumulative count of insts written-back
system.cpu0.iew.wb_producers                  5687710                       # num instructions producing a value
system.cpu0.iew.wb_consumers                  9044061                       # num instructions consuming a value
system.cpu0.iew.wb_rate                      0.249249                       # insts written-back per cycle
system.cpu0.iew.wb_fanout                    0.628889                       # average fanout of values written-back
system.cpu0.commit.commitSquashedInsts        6940308                       # The number of squashed insts skipped by commit
system.cpu0.commit.branchMispredicts           114777                       # The number of times a branch was mispredicted
system.cpu0.commit.committed_per_cycle::samples     29497897                       # Number of insts commited each cycle
system.cpu0.commit.committed_per_cycle::mean     0.138880                       # Number of insts commited each cycle
system.cpu0.commit.committed_per_cycle::stdev     0.706571                       # Number of insts commited each cycle
system.cpu0.commit.committed_per_cycle::underflows            0      0.00%      0.00% # Number of insts commited each cycle
system.cpu0.commit.committed_per_cycle::0     27802822     94.25%     94.25% # Number of insts commited each cycle
system.cpu0.commit.committed_per_cycle::1       760688      2.58%     96.83% # Number of insts commited each cycle
system.cpu0.commit.committed_per_cycle::2       186093      0.63%     97.46% # Number of insts commited each cycle
system.cpu0.commit.committed_per_cycle::3       484155      1.64%     99.10% # Number of insts commited each cycle
system.cpu0.commit.committed_per_cycle::4        97175      0.33%     99.43% # Number of insts commited each cycle
system.cpu0.commit.committed_per_cycle::5        61146      0.21%     99.64% # Number of insts commited each cycle
system.cpu0.commit.committed_per_cycle::6        10895      0.04%     99.68% # Number of insts commited each cycle
system.cpu0.commit.committed_per_cycle::7         7842      0.03%     99.70% # Number of insts commited each cycle
system.cpu0.commit.committed_per_cycle::8        87081      0.30%    100.00% # Number of insts commited each cycle
system.cpu0.commit.committed_per_cycle::overflows            0      0.00%    100.00% # Number of insts commited each cycle
system.cpu0.commit.committed_per_cycle::min_value            0                       # Number of insts commited each cycle
system.cpu0.commit.committed_per_cycle::max_value            8                       # Number of insts commited each cycle
system.cpu0.commit.committed_per_cycle::total     29497897                       # Number of insts commited each cycle
system.cpu0.commit.committedInsts             2051461                       # Number of instructions committed
system.cpu0.commit.committedOps               4096681                       # Number of ops (including micro ops) committed
system.cpu0.commit.swp_count                        0                       # Number of s/w prefetches committed
system.cpu0.commit.refs                        808423                       # Number of memory references committed
system.cpu0.commit.loads                       750982                       # Number of loads committed
system.cpu0.commit.membars                          0                       # Number of memory barriers committed
system.cpu0.commit.branches                    714373                       # Number of branches committed
system.cpu0.commit.vec_insts                        0                       # Number of committed Vector instructions.
system.cpu0.commit.fp_insts                     23074                       # Number of committed floating point instructions.
system.cpu0.commit.int_insts                  4073507                       # Number of committed integer instructions.
system.cpu0.commit.function_calls               10100                       # Number of function calls committed.
system.cpu0.commit.op_class_0::No_OpClass         6864      0.17%      0.17% # Class of committed instruction
system.cpu0.commit.op_class_0::IntAlu         3244750     79.20%     79.37% # Class of committed instruction
system.cpu0.commit.op_class_0::IntMult            404      0.01%     79.38% # Class of committed instruction
system.cpu0.commit.op_class_0::IntDiv           16548      0.40%     79.79% # Class of committed instruction
system.cpu0.commit.op_class_0::FloatAdd         19692      0.48%     80.27% # Class of committed instruction
system.cpu0.commit.op_class_0::FloatCmp             0      0.00%     80.27% # Class of committed instruction
system.cpu0.commit.op_class_0::FloatCvt             0      0.00%     80.27% # Class of committed instruction
system.cpu0.commit.op_class_0::FloatMult            0      0.00%     80.27% # Class of committed instruction
system.cpu0.commit.op_class_0::FloatMultAcc            0      0.00%     80.27% # Class of committed instruction
system.cpu0.commit.op_class_0::FloatDiv             0      0.00%     80.27% # Class of committed instruction
system.cpu0.commit.op_class_0::FloatMisc            0      0.00%     80.27% # Class of committed instruction
system.cpu0.commit.op_class_0::FloatSqrt            0      0.00%     80.27% # Class of committed instruction
system.cpu0.commit.op_class_0::SimdAdd              0      0.00%     80.27% # Class of committed instruction
system.cpu0.commit.op_class_0::SimdAddAcc            0      0.00%     80.27% # Class of committed instruction
system.cpu0.commit.op_class_0::SimdAlu              0      0.00%     80.27% # Class of committed instruction
system.cpu0.commit.op_class_0::SimdCmp              0      0.00%     80.27% # Class of committed instruction
system.cpu0.commit.op_class_0::SimdCvt              0      0.00%     80.27% # Class of committed instruction
system.cpu0.commit.op_class_0::SimdMisc             0      0.00%     80.27% # Class of committed instruction
system.cpu0.commit.op_class_0::SimdMult             0      0.00%     80.27% # Class of committed instruction
system.cpu0.commit.op_class_0::SimdMultAcc            0      0.00%     80.27% # Class of committed instruction
system.cpu0.commit.op_class_0::SimdShift            0      0.00%     80.27% # Class of committed instruction
system.cpu0.commit.op_class_0::SimdShiftAcc            0      0.00%     80.27% # Class of committed instruction
system.cpu0.commit.op_class_0::SimdSqrt             0      0.00%     80.27% # Class of committed instruction
system.cpu0.commit.op_class_0::SimdFloatAdd            0      0.00%     80.27% # Class of committed instruction
system.cpu0.commit.op_class_0::SimdFloatAlu            0      0.00%     80.27% # Class of committed instruction
system.cpu0.commit.op_class_0::SimdFloatCmp            0      0.00%     80.27% # Class of committed instruction
system.cpu0.commit.op_class_0::SimdFloatCvt            0      0.00%     80.27% # Class of committed instruction
system.cpu0.commit.op_class_0::SimdFloatDiv            0      0.00%     80.27% # Class of committed instruction
system.cpu0.commit.op_class_0::SimdFloatMisc            0      0.00%     80.27% # Class of committed instruction
system.cpu0.commit.op_class_0::SimdFloatMult            0      0.00%     80.27% # Class of committed instruction
system.cpu0.commit.op_class_0::SimdFloatMultAcc            0      0.00%     80.27% # Class of committed instruction
system.cpu0.commit.op_class_0::SimdFloatSqrt            0      0.00%     80.27% # Class of committed instruction
system.cpu0.commit.op_class_0::MemRead         747600     18.25%     98.52% # Class of committed instruction
system.cpu0.commit.op_class_0::MemWrite         57441      1.40%     99.92% # Class of committed instruction
system.cpu0.commit.op_class_0::FloatMemRead         3382      0.08%    100.00% # Class of committed instruction
system.cpu0.commit.op_class_0::FloatMemWrite            0      0.00%    100.00% # Class of committed instruction
system.cpu0.commit.op_class_0::IprAccess            0      0.00%    100.00% # Class of committed instruction
system.cpu0.commit.op_class_0::InstPrefetch            0      0.00%    100.00% # Class of committed instruction
system.cpu0.commit.op_class_0::total          4096681                       # Class of committed instruction
system.cpu0.commit.bw_lim_events                87081                       # number cycles where commit BW limit reached
system.cpu0.rob.rob_reads                    40447805                       # The number of ROB reads
system.cpu0.rob.rob_writes                   23069044                       # The number of ROB writes
system.cpu0.timesIdled                            447                       # Number of times that the entire CPU went into an idle state and unscheduled itself
system.cpu0.idleCycles                          44873                       # Total number of cycles that the CPU has spent unscheduled due to idling
system.cpu0.committedInsts                    2051461                       # Number of Instructions Simulated
system.cpu0.committedOps                      4096681                       # Number of Ops (including micro ops) Simulated
system.cpu0.cpi                             14.884362                       # CPI: Cycles Per Instruction
system.cpu0.cpi_total                       14.884362                       # CPI: Total CPI of All Threads
system.cpu0.ipc                              0.067185                       # IPC: Instructions Per Cycle
system.cpu0.ipc_total                        0.067185                       # IPC: Total IPC of All Threads
system.cpu0.int_regfile_reads                 7981865                       # number of integer regfile reads
system.cpu0.int_regfile_writes                6613722                       # number of integer regfile writes
system.cpu0.fp_regfile_reads                    53673                       # number of floating regfile reads
system.cpu0.fp_regfile_writes                   26741                       # number of floating regfile writes
system.cpu0.cc_regfile_reads                  4851435                       # number of cc regfile reads
system.cpu0.cc_regfile_writes                 2130234                       # number of cc regfile writes
system.cpu0.misc_regfile_reads                4035528                       # number of misc regfile reads
system.cpu0.dcache.tags.pwrStateResidencyTicks::UNDEFINED  15267344125                       # Cumulative time (in ticks) in various power states
system.cpu0.dcache.tags.replacements           370149                       # number of replacements
system.cpu0.dcache.tags.tagsinuse                1024                       # Cycle average of tags in use
system.cpu0.dcache.tags.total_refs             578578                       # Total number of references to valid blocks.
system.cpu0.dcache.tags.sampled_refs           370149                       # Sample count of references to valid blocks.
system.cpu0.dcache.tags.avg_refs             1.563095                       # Average number of references to valid blocks.
system.cpu0.dcache.tags.warmup_cycle                0                       # Cycle when the warmup percentage was hit.
system.cpu0.dcache.tags.occ_blocks::cpu0.data         1024                       # Average occupied blocks per requestor
system.cpu0.dcache.tags.occ_percent::cpu0.data            1                       # Average percentage of cache occupancy
system.cpu0.dcache.tags.occ_percent::total            1                       # Average percentage of cache occupancy
system.cpu0.dcache.tags.occ_task_id_blocks::1024         1024                       # Occupied blocks per task id
system.cpu0.dcache.tags.age_task_id_blocks_1024::0          143                       # Occupied blocks per task id
system.cpu0.dcache.tags.age_task_id_blocks_1024::1          879                       # Occupied blocks per task id
system.cpu0.dcache.tags.age_task_id_blocks_1024::2            2                       # Occupied blocks per task id
system.cpu0.dcache.tags.occ_task_id_percent::1024            1                       # Percentage of cache occupancy per task id
system.cpu0.dcache.tags.tag_accesses          5290381                       # Number of tag accesses
system.cpu0.dcache.tags.data_accesses         5290381                       # Number of data accesses
system.cpu0.dcache.pwrStateResidencyTicks::UNDEFINED  15267344125                       # Cumulative time (in ticks) in various power states
system.cpu0.dcache.ReadReq_hits::cpu0.data       525182                       # number of ReadReq hits
system.cpu0.dcache.ReadReq_hits::total         525182                       # number of ReadReq hits
system.cpu0.dcache.WriteReq_hits::cpu0.data        55876                       # number of WriteReq hits
system.cpu0.dcache.WriteReq_hits::total         55876                       # number of WriteReq hits
system.cpu0.dcache.demand_hits::cpu0.data       581058                       # number of demand (read+write) hits
system.cpu0.dcache.demand_hits::total          581058                       # number of demand (read+write) hits
system.cpu0.dcache.overall_hits::cpu0.data       581058                       # number of overall hits
system.cpu0.dcache.overall_hits::total         581058                       # number of overall hits
system.cpu0.dcache.ReadReq_misses::cpu0.data       647435                       # number of ReadReq misses
system.cpu0.dcache.ReadReq_misses::total       647435                       # number of ReadReq misses
system.cpu0.dcache.WriteReq_misses::cpu0.data         1565                       # number of WriteReq misses
system.cpu0.dcache.WriteReq_misses::total         1565                       # number of WriteReq misses
system.cpu0.dcache.demand_misses::cpu0.data       649000                       # number of demand (read+write) misses
system.cpu0.dcache.demand_misses::total        649000                       # number of demand (read+write) misses
system.cpu0.dcache.overall_misses::cpu0.data       649000                       # number of overall misses
system.cpu0.dcache.overall_misses::total       649000                       # number of overall misses
system.cpu0.dcache.ReadReq_miss_latency::cpu0.data  34182909000                       # number of ReadReq miss cycles
system.cpu0.dcache.ReadReq_miss_latency::total  34182909000                       # number of ReadReq miss cycles
system.cpu0.dcache.WriteReq_miss_latency::cpu0.data     71383500                       # number of WriteReq miss cycles
system.cpu0.dcache.WriteReq_miss_latency::total     71383500                       # number of WriteReq miss cycles
system.cpu0.dcache.demand_miss_latency::cpu0.data  34254292500                       # number of demand (read+write) miss cycles
system.cpu0.dcache.demand_miss_latency::total  34254292500                       # number of demand (read+write) miss cycles
system.cpu0.dcache.overall_miss_latency::cpu0.data  34254292500                       # number of overall miss cycles
system.cpu0.dcache.overall_miss_latency::total  34254292500                       # number of overall miss cycles
system.cpu0.dcache.ReadReq_accesses::cpu0.data      1172617                       # number of ReadReq accesses(hits+misses)
system.cpu0.dcache.ReadReq_accesses::total      1172617                       # number of ReadReq accesses(hits+misses)
system.cpu0.dcache.WriteReq_accesses::cpu0.data        57441                       # number of WriteReq accesses(hits+misses)
system.cpu0.dcache.WriteReq_accesses::total        57441                       # number of WriteReq accesses(hits+misses)
system.cpu0.dcache.demand_accesses::cpu0.data      1230058                       # number of demand (read+write) accesses
system.cpu0.dcache.demand_accesses::total      1230058                       # number of demand (read+write) accesses
[...]
system.l2.ReadExReq_miss_rate::cpu0.data     0.347070                       # miss rate for ReadExReq accesses
system.l2.ReadExReq_miss_rate::total         0.347070                       # miss rate for ReadExReq accesses
system.l2.ReadCleanReq_miss_rate::cpu0.inst            1                       # miss rate for ReadCleanReq accesses
system.l2.ReadCleanReq_miss_rate::total             1                       # miss rate for ReadCleanReq accesses
system.l2.ReadSharedReq_miss_rate::cpu0.data     0.453121                       # miss rate for ReadSharedReq accesses
system.l2.ReadSharedReq_miss_rate::total     0.453121                       # miss rate for ReadSharedReq accesses
system.l2.demand_miss_rate::cpu0.inst               1                       # miss rate for demand accesses
system.l2.demand_miss_rate::cpu0.data        0.452676                       # miss rate for demand accesses
system.l2.demand_miss_rate::total            0.452677                       # miss rate for demand accesses
system.l2.overall_miss_rate::cpu0.inst              1                       # miss rate for overall accesses
system.l2.overall_miss_rate::cpu0.data       0.452676                       # miss rate for overall accesses
system.l2.overall_miss_rate::total           0.452677                       # miss rate for overall accesses
system.l2.ReadExReq_avg_miss_latency::cpu0.data 103170.686456                       # average ReadExReq miss latency
system.l2.ReadExReq_avg_miss_latency::total 103170.686456                       # average ReadExReq miss latency
system.l2.ReadCleanReq_avg_miss_latency::cpu0.inst        89500                       # average ReadCleanReq miss latency
system.l2.ReadCleanReq_avg_miss_latency::total        89500                       # average ReadCleanReq miss latency
system.l2.ReadSharedReq_avg_miss_latency::cpu0.data 95703.175706                       # average ReadSharedReq miss latency
system.l2.ReadSharedReq_avg_miss_latency::total 95703.175706                       # average ReadSharedReq miss latency
system.l2.demand_avg_miss_latency::cpu0.inst        89500                       # average overall miss latency
system.l2.demand_avg_miss_latency::cpu0.data 95727.197312                       # average overall miss latency
system.l2.demand_avg_miss_latency::total 95727.160148                       # average overall miss latency
system.l2.overall_avg_miss_latency::cpu0.inst        89500                       # average overall miss latency
system.l2.overall_avg_miss_latency::cpu0.data 95727.197312                       # average overall miss latency
system.l2.overall_avg_miss_latency::total 95727.160148                       # average overall miss latency
system.l2.blocked_cycles::no_mshrs                  0                       # number of cycles access was blocked
system.l2.blocked_cycles::no_targets                0                       # number of cycles access was blocked
system.l2.blocked::no_mshrs                         0                       # number of cycles access was blocked
system.l2.blocked::no_targets                       0                       # number of cycles access was blocked
system.l2.avg_blocked_cycles::no_mshrs            nan                       # average number of cycles each access was blocked
system.l2.avg_blocked_cycles::no_targets          nan                       # average number of cycles each access was blocked
system.l2.writebacks::writebacks                  666                       # number of writebacks
system.l2.writebacks::total                       666                       # number of writebacks
system.l2.ReadExReq_mshr_misses::cpu0.data          539                       # number of ReadExReq MSHR misses
system.l2.ReadExReq_mshr_misses::total            539                       # number of ReadExReq MSHR misses
system.l2.ReadCleanReq_mshr_misses::cpu0.inst            1                       # number of ReadCleanReq MSHR misses
system.l2.ReadCleanReq_mshr_misses::total            1                       # number of ReadCleanReq MSHR misses
system.l2.ReadSharedReq_mshr_misses::cpu0.data       167018                       # number of ReadSharedReq MSHR misses
system.l2.ReadSharedReq_mshr_misses::total       167018                       # number of ReadSharedReq MSHR misses
system.l2.demand_mshr_misses::cpu0.inst             1                       # number of demand (read+write) MSHR misses
system.l2.demand_mshr_misses::cpu0.data        167557                       # number of demand (read+write) MSHR misses
system.l2.demand_mshr_misses::total            167558                       # number of demand (read+write) MSHR misses
system.l2.overall_mshr_misses::cpu0.inst            1                       # number of overall MSHR misses
system.l2.overall_mshr_misses::cpu0.data       167557                       # number of overall MSHR misses
system.l2.overall_mshr_misses::total           167558                       # number of overall MSHR misses
system.l2.ReadExReq_mshr_miss_latency::cpu0.data     50219000                       # number of ReadExReq MSHR miss cycles
system.l2.ReadExReq_mshr_miss_latency::total     50219000                       # number of ReadExReq MSHR miss cycles
system.l2.ReadCleanReq_mshr_miss_latency::cpu0.inst        79500                       # number of ReadCleanReq MSHR miss cycles
system.l2.ReadCleanReq_mshr_miss_latency::total        79500                       # number of ReadCleanReq MSHR miss cycles
system.l2.ReadSharedReq_mshr_miss_latency::cpu0.data  14313963000                       # number of ReadSharedReq MSHR miss cycles
system.l2.ReadSharedReq_mshr_miss_latency::total  14313963000                       # number of ReadSharedReq MSHR miss cycles
system.l2.demand_mshr_miss_latency::cpu0.inst        79500                       # number of demand (read+write) MSHR miss cycles
system.l2.demand_mshr_miss_latency::cpu0.data  14364182000                       # number of demand (read+write) MSHR miss cycles
system.l2.demand_mshr_miss_latency::total  14364261500                       # number of demand (read+write) MSHR miss cycles
system.l2.overall_mshr_miss_latency::cpu0.inst        79500                       # number of overall MSHR miss cycles
system.l2.overall_mshr_miss_latency::cpu0.data  14364182000                       # number of overall MSHR miss cycles
system.l2.overall_mshr_miss_latency::total  14364261500                       # number of overall MSHR miss cycles
system.l2.ReadExReq_mshr_miss_rate::cpu0.data     0.347070                       # mshr miss rate for ReadExReq accesses
system.l2.ReadExReq_mshr_miss_rate::total     0.347070                       # mshr miss rate for ReadExReq accesses
system.l2.ReadCleanReq_mshr_miss_rate::cpu0.inst            1                       # mshr miss rate for ReadCleanReq accesses
system.l2.ReadCleanReq_mshr_miss_rate::total            1                       # mshr miss rate for ReadCleanReq accesses
system.l2.ReadSharedReq_mshr_miss_rate::cpu0.data     0.453121                       # mshr miss rate for ReadSharedReq accesses
system.l2.ReadSharedReq_mshr_miss_rate::total     0.453121                       # mshr miss rate for ReadSharedReq accesses
system.l2.demand_mshr_miss_rate::cpu0.inst            1                       # mshr miss rate for demand accesses
system.l2.demand_mshr_miss_rate::cpu0.data     0.452676                       # mshr miss rate for demand accesses
system.l2.demand_mshr_miss_rate::total       0.452677                       # mshr miss rate for demand accesses
system.l2.overall_mshr_miss_rate::cpu0.inst            1                       # mshr miss rate for overall accesses
system.l2.overall_mshr_miss_rate::cpu0.data     0.452676                       # mshr miss rate for overall accesses
system.l2.overall_mshr_miss_rate::total      0.452677                       # mshr miss rate for overall accesses
system.l2.ReadExReq_avg_mshr_miss_latency::cpu0.data 93170.686456                       # average ReadExReq mshr miss latency
system.l2.ReadExReq_avg_mshr_miss_latency::total 93170.686456                       # average ReadExReq mshr miss latency
system.l2.ReadCleanReq_avg_mshr_miss_latency::cpu0.inst        79500                       # average ReadCleanReq mshr miss latency
system.l2.ReadCleanReq_avg_mshr_miss_latency::total        79500                       # average ReadCleanReq mshr miss latency
system.l2.ReadSharedReq_avg_mshr_miss_latency::cpu0.data 85703.115832                       # average ReadSharedReq mshr miss latency
system.l2.ReadSharedReq_avg_mshr_miss_latency::total 85703.115832                       # average ReadSharedReq mshr miss latency
system.l2.demand_avg_mshr_miss_latency::cpu0.inst        79500                       # average overall mshr miss latency
system.l2.demand_avg_mshr_miss_latency::cpu0.data 85727.137631                       # average overall mshr miss latency
system.l2.demand_avg_mshr_miss_latency::total 85727.100467                       # average overall mshr miss latency
system.l2.overall_avg_mshr_miss_latency::cpu0.inst        79500                       # average overall mshr miss latency
system.l2.overall_avg_mshr_miss_latency::cpu0.data 85727.137631                       # average overall mshr miss latency
system.l2.overall_avg_mshr_miss_latency::total 85727.100467                       # average overall mshr miss latency
system.membus.snoop_filter.tot_requests        335116                       # Total number of requests made to the snoop filter.
system.membus.snoop_filter.hit_single_requests       167559                       # Number of requests hitting in the snoop filter with a single holder of the requested data.
system.membus.snoop_filter.hit_multi_requests            0                       # Number of requests hitting in the snoop filter with multiple (>1) holders of the requested data.
system.membus.snoop_filter.tot_snoops               0                       # Total number of snoops made to the snoop filter.
system.membus.snoop_filter.hit_single_snoops            0                       # Number of snoops hitting in the snoop filter with a single holder of the requested data.
system.membus.snoop_filter.hit_multi_snoops            0                       # Number of snoops hitting in the snoop filter with multiple (>1) holders of the requested data.
system.membus.pwrStateResidencyTicks::UNDEFINED  15267344125                       # Cumulative time (in ticks) in various power states
system.membus.trans_dist::ReadResp             167020                       # Transaction distribution
system.membus.trans_dist::WritebackDirty          666                       # Transaction distribution
system.membus.trans_dist::CleanEvict           166892                       # Transaction distribution
system.membus.trans_dist::ReadExReq               539                       # Transaction distribution
system.membus.trans_dist::ReadExResp              539                       # Transaction distribution
system.membus.trans_dist::ReadSharedReq        167019                       # Transaction distribution
system.membus.pkt_count_system.l2.mem_side::system.mem_ctrls.port       502675                       # Packet count per connected master and slave (bytes)
system.membus.pkt_count_system.l2.mem_side::total       502675                       # Packet count per connected master and slave (bytes)
system.membus.pkt_count::total                 502675                       # Packet count per connected master and slave (bytes)
system.membus.pkt_size_system.l2.mem_side::system.mem_ctrls.port     10766400                       # Cumulative packet size per connected master and slave (bytes)
system.membus.pkt_size_system.l2.mem_side::total     10766400                       # Cumulative packet size per connected master and slave (bytes)
system.membus.pkt_size::total                10766400                       # Cumulative packet size per connected master and slave (bytes)
system.membus.snoops                                0                       # Total snoops (count)
system.membus.snoopTraffic                          0                       # Total snoop traffic (bytes)
system.membus.snoop_fanout::samples            167558                       # Request fanout histogram
system.membus.snoop_fanout::mean                    0                       # Request fanout histogram
system.membus.snoop_fanout::stdev                   0                       # Request fanout histogram
system.membus.snoop_fanout::underflows              0      0.00%      0.00% # Request fanout histogram
system.membus.snoop_fanout::0                  167558    100.00%    100.00% # Request fanout histogram
system.membus.snoop_fanout::1                       0      0.00%    100.00% # Request fanout histogram
system.membus.snoop_fanout::overflows               0      0.00%    100.00% # Request fanout histogram
system.membus.snoop_fanout::min_value               0                       # Request fanout histogram
system.membus.snoop_fanout::max_value               0                       # Request fanout histogram
system.membus.snoop_fanout::total              167558                       # Request fanout histogram
system.membus.reqLayer8.occupancy           393452000                       # Layer occupancy (ticks)
system.membus.reqLayer8.utilization               2.6                       # Layer utilization (%)
system.membus.respLayer1.occupancy          910925000                       # Layer occupancy (ticks)
system.membus.respLayer1.utilization              6.0                       # Layer utilization (%)
system.tol2bus.snoop_filter.tot_requests       740299                       # Total number of requests made to the snoop filter.
system.tol2bus.snoop_filter.hit_single_requests       370150                       # Number of requests hitting in the snoop filter with a single holder of the requested data.
system.tol2bus.snoop_filter.hit_multi_requests          318                       # Number of requests hitting in the snoop filter with multiple (>1) holders of the requested data.
system.tol2bus.snoop_filter.tot_snoops              2                       # Total number of snoops made to the snoop filter.
system.tol2bus.snoop_filter.hit_single_snoops            2                       # Number of snoops hitting in the snoop filter with a single holder of the requested data.
system.tol2bus.snoop_filter.hit_multi_snoops            0                       # Number of snoops hitting in the snoop filter with multiple (>1) holders of the requested data.
system.tol2bus.pwrStateResidencyTicks::UNDEFINED  15267344125                       # Cumulative time (in ticks) in various power states
system.tol2bus.trans_dist::ReadResp            368597                       # Transaction distribution
system.tol2bus.trans_dist::WritebackDirty         5154                       # Transaction distribution
system.tol2bus.trans_dist::WritebackClean            1                       # Transaction distribution
system.tol2bus.trans_dist::CleanEvict          532555                       # Transaction distribution
system.tol2bus.trans_dist::ReadExReq             1553                       # Transaction distribution
system.tol2bus.trans_dist::ReadExResp            1553                       # Transaction distribution
system.tol2bus.trans_dist::ReadCleanReq             1                       # Transaction distribution
system.tol2bus.trans_dist::ReadSharedReq       368595                       # Transaction distribution
system.tol2bus.pkt_count_system.cpu0.icache.mem_side::system.l2.cpu_side            3                       # Packet count per connected master and slave (bytes)
system.tol2bus.pkt_count_system.cpu0.dcache.mem_side::system.l2.cpu_side      1110446                       # Packet count per connected master and slave (bytes)
system.tol2bus.pkt_count::total               1110449                       # Packet count per connected master and slave (bytes)
system.tol2bus.pkt_size_system.cpu0.icache.mem_side::system.l2.cpu_side          128                       # Cumulative packet size per connected master and slave (bytes)
system.tol2bus.pkt_size_system.cpu0.dcache.mem_side::system.l2.cpu_side     23976768                       # Cumulative packet size per connected master and slave (bytes)
system.tol2bus.pkt_size::total               23976896                       # Cumulative packet size per connected master and slave (bytes)
system.tol2bus.snoops                          167560                       # Total snoops (count)
system.tol2bus.snoopTraffic                     42624                       # Total snoop traffic (bytes)
system.tol2bus.snoop_fanout::samples           537709                       # Request fanout histogram
system.tol2bus.snoop_fanout::mean            0.000595                       # Request fanout histogram
system.tol2bus.snoop_fanout::stdev           0.024388                       # Request fanout histogram
system.tol2bus.snoop_fanout::underflows             0      0.00%      0.00% # Request fanout histogram
system.tol2bus.snoop_fanout::0                 537389     99.94%     99.94% # Request fanout histogram
system.tol2bus.snoop_fanout::1                    320      0.06%    100.00% # Request fanout histogram
system.tol2bus.snoop_fanout::2                      0      0.00%    100.00% # Request fanout histogram
system.tol2bus.snoop_fanout::3                      0      0.00%    100.00% # Request fanout histogram
system.tol2bus.snoop_fanout::4                      0      0.00%    100.00% # Request fanout histogram
system.tol2bus.snoop_fanout::5                      0      0.00%    100.00% # Request fanout histogram
system.tol2bus.snoop_fanout::6                      0      0.00%    100.00% # Request fanout histogram
system.tol2bus.snoop_fanout::7                      0      0.00%    100.00% # Request fanout histogram
system.tol2bus.snoop_fanout::8                      0      0.00%    100.00% # Request fanout histogram
system.tol2bus.snoop_fanout::9                      0      0.00%    100.00% # Request fanout histogram
system.tol2bus.snoop_fanout::10                     0      0.00%    100.00% # Request fanout histogram
system.tol2bus.snoop_fanout::11                     0      0.00%    100.00% # Request fanout histogram
system.tol2bus.snoop_fanout::12                     0      0.00%    100.00% # Request fanout histogram
system.tol2bus.snoop_fanout::13                     0      0.00%    100.00% # Request fanout histogram
system.tol2bus.snoop_fanout::14                     0      0.00%    100.00% # Request fanout histogram
system.tol2bus.snoop_fanout::15                     0      0.00%    100.00% # Request fanout histogram
system.tol2bus.snoop_fanout::16                     0      0.00%    100.00% # Request fanout histogram
system.tol2bus.snoop_fanout::overflows              0      0.00%    100.00% # Request fanout histogram
system.tol2bus.snoop_fanout::min_value              0                       # Request fanout histogram
system.tol2bus.snoop_fanout::max_value              1                       # Request fanout histogram
system.tol2bus.snoop_fanout::total             537709                       # Request fanout histogram
system.tol2bus.reqLayer0.occupancy          374638500                       # Layer occupancy (ticks)
system.tol2bus.reqLayer0.utilization              2.5                       # Layer utilization (%)
system.tol2bus.respLayer0.occupancy              1500                       # Layer occupancy (ticks)
system.tol2bus.respLayer0.utilization             0.0                       # Layer utilization (%)
system.tol2bus.respLayer1.occupancy         555223500                       # Layer occupancy (ticks)
system.tol2bus.respLayer1.utilization             3.6                       # Layer utilization (%)

---------- End Simulation Statistics   ----------
