
---------- Begin Simulation Statistics ----------
sim_seconds                                  0.015267                       # Number of seconds simulated
sim_ticks                                 15267344125                       # Number of ticks simulated
final_tick                               3755766654750                       # Number of ticks from beginning of simulation (restored from checkpoints and never reset)
sim_freq                                 1000000000000                       # Frequency of simulated ticks
host_inst_rate                               92580728                       # Simulator instruction rate (inst/s)
host_op_rate                                171803408                       # Simulator op (including micro ops) rate (op/s)
host_tick_rate                              248568886                       # Simulator tick rate (ticks/s)
host_mem_usage                                2332640                       # Number of bytes of host memory used
host_seconds                                    61.42                       # Real time elapsed on the host
sim_insts                                  5686397151                       # Number of instructions simulated
sim_ops                                   10552331907                       # Number of ops (including micro ops) simulated
system.voltage_domain.voltage                       1                       # Voltage in Volts
system.clk_domain.clock                          1000                       # Clock period in ticks
system.mem_ctrls.pwrStateResidencyTicks::UNDEFINED  15267344125                       # Cumulative time (in ticks) in various power states
system.mem_ctrls.bytes_read::cpu0.inst             64                       # Number of bytes read from this memory
system.mem_ctrls.bytes_read::cpu0.data       10967232                       # Number of bytes read from this memory
system.mem_ctrls.bytes_read::total           10967296                       # Number of bytes read from this memory
system.mem_ctrls.bytes_inst_read::cpu0.inst           64                       # Number of instructions bytes read from this memory
system.mem_ctrls.bytes_inst_read::total            64                       # Number of instructions bytes read from this memory
system.mem_ctrls.bytes_written::writebacks        38464                       # Number of bytes written to this memory
system.mem_ctrls.bytes_written::total           38464                       # Number of bytes written to this memory
system.mem_ctrls.num_reads::cpu0.inst               1                       # Number of read requests responded to by this memory
system.mem_ctrls.num_reads::cpu0.data          171363                       # Number of read requests responded to by this memory
system.mem_ctrls.num_reads::total              171364                       # Number of read requests responded to by this memory
system.mem_ctrls.num_writes::writebacks           601                       # Number of write requests responded to by this memory
system.mem_ctrls.num_writes::total                601                       # Number of write requests responded to by this memory
system.mem_ctrls.bw_read::cpu0.inst              4192                       # Total read bandwidth from this memory (bytes/s)
system.mem_ctrls.bw_read::cpu0.data         718345765                       # Total read bandwidth from this memory (bytes/s)
system.mem_ctrls.bw_read::total             718349957                       # Total read bandwidth from this memory (bytes/s)
system.mem_ctrls.bw_inst_read::cpu0.inst         4192                       # Instruction read bandwidth from this memory (bytes/s)
system.mem_ctrls.bw_inst_read::total             4192                       # Instruction read bandwidth from this memory (bytes/s)
system.mem_ctrls.bw_write::writebacks         2519364                       # Write bandwidth from this memory (bytes/s)
system.mem_ctrls.bw_write::total              2519364                       # Write bandwidth from this memory (bytes/s)
system.mem_ctrls.bw_total::writebacks         2519364                       # Total bandwidth to/from this memory (bytes/s)
system.mem_ctrls.bw_total::cpu0.inst             4192                       # Total bandwidth to/from this memory (bytes/s)
system.mem_ctrls.bw_total::cpu0.data        718345765                       # Total bandwidth to/from this memory (bytes/s)
system.mem_ctrls.bw_total::total            720869321                       # Total bandwidth to/from this memory (bytes/s)
system.mem_ctrls.readReqs                      171365                       # Number of read requests accepted
system.mem_ctrls.writeReqs                        601                       # Number of write requests accepted
system.mem_ctrls.readBursts                    171365                       # Number of DRAM read bursts, including those serviced by the write queue
system.mem_ctrls.writeBursts                      601                       # Number of DRAM write bursts, including those merged in the write queue
system.mem_ctrls.bytesReadDRAM               10962496                       # Total number of bytes read from DRAM
system.mem_ctrls.bytesReadWrQ                    4864                       # Total number of bytes read from write queue
system.mem_ctrls.bytesWritten                   38016                       # Total number of bytes written to DRAM
system.mem_ctrls.bytesReadSys                10967360                       # Total read bytes from the system interface side
system.mem_ctrls.bytesWrittenSys                38464                       # Total written bytes from the system interface side
system.mem_ctrls.servicedByWrQ                     76                       # Number of DRAM read bursts serviced by the write queue
system.mem_ctrls.mergedWrBursts                     0                       # Number of DRAM write bursts merged with an existing one
system.mem_ctrls.neitherReadNorWriteReqs            0                       # Number of requests that are neither read nor write
system.mem_ctrls.perBankRdBursts::0             10804                       # Per bank write bursts
system.mem_ctrls.perBankRdBursts::1             10418                       # Per bank write bursts
system.mem_ctrls.perBankRdBursts::2             10491                       # Per bank write bursts
system.mem_ctrls.perBankRdBursts::3             10367                       # Per bank write bursts
system.mem_ctrls.perBankRdBursts::4             10278                       # Per bank write bursts
system.mem_ctrls.perBankRdBursts::5             10728                       # Per bank write bursts
system.mem_ctrls.perBankRdBursts::6             10446                       # Per bank write bursts
system.mem_ctrls.perBankRdBursts::7             10277                       # Per bank write bursts
system.mem_ctrls.perBankRdBursts::8             10549                       # Per bank write bursts
system.mem_ctrls.perBankRdBursts::9             10298                       # Per bank write bursts
system.mem_ctrls.perBankRdBursts::10            10387                       # Per bank write bursts
system.mem_ctrls.perBankRdBursts::11            10731                       # Per bank write bursts
system.mem_ctrls.perBankRdBursts::12            11584                       # Per bank write bursts
system.mem_ctrls.perBankRdBursts::13            11314                       # Per bank write bursts
system.mem_ctrls.perBankRdBursts::14            11514                       # Per bank write bursts
system.mem_ctrls.perBankRdBursts::15            11103                       # Per bank write bursts
system.mem_ctrls.perBankWrBursts::0               115                       # Per bank write bursts
system.mem_ctrls.perBankWrBursts::1                69                       # Per bank write bursts
system.mem_ctrls.perBankWrBursts::2                 0                       # Per bank write bursts
system.mem_ctrls.perBankWrBursts::3                 0                       # Per bank write bursts
system.mem_ctrls.perBankWrBursts::4                 0                       # Per bank write bursts
system.mem_ctrls.perBankWrBursts::5                 0                       # Per bank write bursts
system.mem_ctrls.perBankWrBursts::6                 0                       # Per bank write bursts
system.mem_ctrls.perBankWrBursts::7                 0                       # Per bank write bursts
system.mem_ctrls.perBankWrBursts::8                 0                       # Per bank write bursts
system.mem_ctrls.perBankWrBursts::9                 0                       # Per bank write bursts
system.mem_ctrls.perBankWrBursts::10                0                       # Per bank write bursts
system.mem_ctrls.perBankWrBursts::11                0                       # Per bank write bursts
system.mem_ctrls.perBankWrBursts::12              126                       # Per bank write bursts
system.mem_ctrls.perBankWrBursts::13               13                       # Per bank write bursts
system.mem_ctrls.perBankWrBursts::14              143                       # Per bank write bursts
system.mem_ctrls.perBankWrBursts::15              128                       # Per bank write bursts
system.mem_ctrls.numRdRetry                         0                       # Number of times read queue was full causing retry
system.mem_ctrls.numWrRetry                         0                       # Number of times write queue was full causing retry
system.mem_ctrls.totGap                   15267490000                       # Total gap between requests
system.mem_ctrls.readPktSize::0                     0                       # Read request sizes (log2)
system.mem_ctrls.readPktSize::1                     0                       # Read request sizes (log2)
system.mem_ctrls.readPktSize::2                     0                       # Read request sizes (log2)
system.mem_ctrls.readPktSize::3                     0                       # Read request sizes (log2)
system.mem_ctrls.readPktSize::4                     0                       # Read request sizes (log2)
system.mem_ctrls.readPktSize::5                     0                       # Read request sizes (log2)
system.mem_ctrls.readPktSize::6                171365                       # Read request sizes (log2)
system.mem_ctrls.writePktSize::0                    0                       # Write request sizes (log2)
system.mem_ctrls.writePktSize::1                    0                       # Write request sizes (log2)
system.mem_ctrls.writePktSize::2                    0                       # Write request sizes (log2)
system.mem_ctrls.writePktSize::3                    0                       # Write request sizes (log2)
system.mem_ctrls.writePktSize::4                    0                       # Write request sizes (log2)
system.mem_ctrls.writePktSize::5                    0                       # Write request sizes (log2)
system.mem_ctrls.writePktSize::6                  601                       # Write request sizes (log2)
system.mem_ctrls.rdQLenPdf::0                  131666                       # What read queue length does an incoming req see
system.mem_ctrls.rdQLenPdf::1                   36830                       # What read queue length does an incoming req see
system.mem_ctrls.rdQLenPdf::2                    2711                       # What read queue length does an incoming req see
system.mem_ctrls.rdQLenPdf::3                      81                       # What read queue length does an incoming req see
system.mem_ctrls.rdQLenPdf::4                       1                       # What read queue length does an incoming req see
system.mem_ctrls.rdQLenPdf::5                       0                       # What read queue length does an incoming req see
system.mem_ctrls.rdQLenPdf::6                       0                       # What read queue length does an incoming req see
system.mem_ctrls.rdQLenPdf::7                       0                       # What read queue length does an incoming req see
system.mem_ctrls.rdQLenPdf::8                       0                       # What read queue length does an incoming req see
system.mem_ctrls.rdQLenPdf::9                       0                       # What read queue length does an incoming req see
system.mem_ctrls.rdQLenPdf::10                      0                       # What read queue length does an incoming req see
system.mem_ctrls.rdQLenPdf::11                      0                       # What read queue length does an incoming req see
system.mem_ctrls.rdQLenPdf::12                      0                       # What read queue length does an incoming req see
system.mem_ctrls.rdQLenPdf::13                      0                       # What read queue length does an incoming req see
system.mem_ctrls.rdQLenPdf::14                      0                       # What read queue length does an incoming req see
system.mem_ctrls.rdQLenPdf::15                      0                       # What read queue length does an incoming req see
system.mem_ctrls.rdQLenPdf::16                      0                       # What read queue length does an incoming req see
system.mem_ctrls.rdQLenPdf::17                      0                       # What read queue length does an incoming req see
system.mem_ctrls.rdQLenPdf::18                      0                       # What read queue length does an incoming req see
system.mem_ctrls.rdQLenPdf::19                      0                       # What read queue length does an incoming req see
system.mem_ctrls.rdQLenPdf::20                      0                       # What read queue length does an incoming req see
system.mem_ctrls.rdQLenPdf::21                      0                       # What read queue length does an incoming req see
system.mem_ctrls.rdQLenPdf::22                      0                       # What read queue length does an incoming req see
system.mem_ctrls.rdQLenPdf::23                      0                       # What read queue length does an incoming req see
system.mem_ctrls.rdQLenPdf::24                      0                       # What read queue length does an incoming req see
system.mem_ctrls.rdQLenPdf::25                      0                       # What read queue length does an incoming req see
system.mem_ctrls.rdQLenPdf::26                      0                       # What read queue length does an incoming req see
system.mem_ctrls.rdQLenPdf::27                      0                       # What read queue length does an incoming req see
system.mem_ctrls.rdQLenPdf::28                      0                       # What read queue length does an incoming req see
system.mem_ctrls.rdQLenPdf::29                      0                       # What read queue length does an incoming req see
system.mem_ctrls.rdQLenPdf::30                      0                       # What read queue length does an incoming req see
system.mem_ctrls.rdQLenPdf::31                      0                       # What read queue length does an incoming req see
system.mem_ctrls.wrQLenPdf::0                       0                       # What write queue length does an incoming req see
system.mem_ctrls.wrQLenPdf::1                       0                       # What write queue length does an incoming req see
system.mem_ctrls.wrQLenPdf::2                       0                       # What write queue length does an incoming req see
system.mem_ctrls.wrQLenPdf::3                       0                       # What write queue length does an incoming req see
system.mem_ctrls.wrQLenPdf::4                       0                       # What write queue length does an incoming req see
system.mem_ctrls.wrQLenPdf::5                       0                       # What write queue length does an incoming req see
system.mem_ctrls.wrQLenPdf::6                       0                       # What write queue length does an incoming req see
system.mem_ctrls.wrQLenPdf::7                       0                       # What write queue length does an incoming req see
system.mem_ctrls.wrQLenPdf::8                       0                       # What write queue length does an incoming req see
system.mem_ctrls.wrQLenPdf::9                       0                       # What write queue length does an incoming req see
system.mem_ctrls.wrQLenPdf::10                      0                       # What write queue length does an incoming req see
system.mem_ctrls.wrQLenPdf::11                      0                       # What write queue length does an incoming req see
system.mem_ctrls.wrQLenPdf::12                      0                       # What write queue length does an incoming req see
system.mem_ctrls.wrQLenPdf::13                      0                       # What write queue length does an incoming req see
system.mem_ctrls.wrQLenPdf::14                      0                       # What write queue length does an incoming req see
system.mem_ctrls.wrQLenPdf::15                      1                       # What write queue length does an incoming req see
system.mem_ctrls.wrQLenPdf::16                      1                       # What write queue length does an incoming req see
system.mem_ctrls.wrQLenPdf::17                     35                       # What write queue length does an incoming req see
system.mem_ctrls.wrQLenPdf::18                     37                       # What write queue length does an incoming req see
system.mem_ctrls.wrQLenPdf::19                     38                       # What write queue length does an incoming req see
system.mem_ctrls.wrQLenPdf::20                     38                       # What write queue length does an incoming req see
system.mem_ctrls.wrQLenPdf::21                     38                       # What write queue length does an incoming req see
system.mem_ctrls.wrQLenPdf::22                     38                       # What write queue length does an incoming req see
system.mem_ctrls.wrQLenPdf::23                     38                       # What write queue length does an incoming req see
system.mem_ctrls.wrQLenPdf::24                     38                       # What write queue length does an incoming req see
system.mem_ctrls.wrQLenPdf::25                     38                       # What write queue length does an incoming req see
system.mem_ctrls.wrQLenPdf::26                     37                       # What write queue length does an incoming req see
system.mem_ctrls.wrQLenPdf::27                     37                       # What write queue length does an incoming req see
system.mem_ctrls.wrQLenPdf::28                     37                       # What write queue length does an incoming req see
system.mem_ctrls.wrQLenPdf::29                     37                       # What write queue length does an incoming req see
system.mem_ctrls.wrQLenPdf::30                     37                       # What write queue length does an incoming req see
system.mem_ctrls.wrQLenPdf::31                     37                       # What write queue length does an incoming req see
system.mem_ctrls.wrQLenPdf::32                     39                       # What write queue length does an incoming req see
system.mem_ctrls.wrQLenPdf::33                      0                       # What write queue length does an incoming req see
system.mem_ctrls.wrQLenPdf::34                      0                       # What write queue length does an incoming req see
system.mem_ctrls.wrQLenPdf::35                      0                       # What write queue length does an incoming req see
system.mem_ctrls.wrQLenPdf::36                      0                       # What write queue length does an incoming req see
system.mem_ctrls.wrQLenPdf::37                      0                       # What write queue length does an incoming req see
system.mem_ctrls.wrQLenPdf::38                      0                       # What write queue length does an incoming req see
system.mem_ctrls.wrQLenPdf::39                      0                       # What write queue length does an incoming req see
system.mem_ctrls.wrQLenPdf::40                      0                       # What write queue length does an incoming req see
system.mem_ctrls.wrQLenPdf::41                      0                       # What write queue length does an incoming req see
system.mem_ctrls.wrQLenPdf::42                      0                       # What write queue length does an incoming req see
system.mem_ctrls.wrQLenPdf::43                      0                       # What write queue length does an incoming req see
system.mem_ctrls.wrQLenPdf::44                      0                       # What write queue length does an incoming req see
system.mem_ctrls.wrQLenPdf::45                      0                       # What write queue length does an incoming req see
system.mem_ctrls.wrQLenPdf::46                      0                       # What write queue length does an incoming req see
system.mem_ctrls.wrQLenPdf::47                      0                       # What write queue length does an incoming req see
system.mem_ctrls.wrQLenPdf::48                      0                       # What write queue length does an incoming req see
system.mem_ctrls.wrQLenPdf::49                      0                       # What write queue length does an incoming req see
system.mem_ctrls.wrQLenPdf::50                      0                       # What write queue length does an incoming req see
system.mem_ctrls.wrQLenPdf::51                      0                       # What write queue length does an incoming req see
system.mem_ctrls.wrQLenPdf::52                      0                       # What write queue length does an incoming req see
system.mem_ctrls.wrQLenPdf::53                      0                       # What write queue length does an incoming req see
system.mem_ctrls.wrQLenPdf::54                      0                       # What write queue length does an incoming req see
system.mem_ctrls.wrQLenPdf::55                      0                       # What write queue length does an incoming req see
system.mem_ctrls.wrQLenPdf::56                      0                       # What write queue length does an incoming req see
system.mem_ctrls.wrQLenPdf::57                      0                       # What write queue length does an incoming req see
system.mem_ctrls.wrQLenPdf::58                      0                       # What write queue length does an incoming req see
system.mem_ctrls.wrQLenPdf::59                      0                       # What write queue length does an incoming req see
system.mem_ctrls.wrQLenPdf::60                      0                       # What write queue length does an incoming req see
system.mem_ctrls.wrQLenPdf::61                      0                       # What write queue length does an incoming req see
system.mem_ctrls.wrQLenPdf::62                      0                       # What write queue length does an incoming req see
system.mem_ctrls.wrQLenPdf::63                      0                       # What write queue length does an incoming req see
system.mem_ctrls.bytesPerActivate::samples        94753                       # Bytes accessed per row activation
system.mem_ctrls.bytesPerActivate::mean    116.078478                       # Bytes accessed per row activation
system.mem_ctrls.bytesPerActivate::gmean   100.522230                       # Bytes accessed per row activation
system.mem_ctrls.bytesPerActivate::stdev    70.061570                       # Bytes accessed per row activation
system.mem_ctrls.bytesPerActivate::0-127        48690     51.39%     51.39% # Bytes accessed per row activation
system.mem_ctrls.bytesPerActivate::128-255        38403     40.53%     91.92% # Bytes accessed per row activation
system.mem_ctrls.bytesPerActivate::256-383         6765      7.14%     99.06% # Bytes accessed per row activation
system.mem_ctrls.bytesPerActivate::384-511          792      0.84%     99.89% # Bytes accessed per row activation
system.mem_ctrls.bytesPerActivate::512-639           77      0.08%     99.97% # Bytes accessed per row activation
system.mem_ctrls.bytesPerActivate::640-767           10      0.01%     99.98% # Bytes accessed per row activation
system.mem_ctrls.bytesPerActivate::768-895            4      0.00%     99.99% # Bytes accessed per row activation
system.mem_ctrls.bytesPerActivate::896-1023            6      0.01%     99.99% # Bytes accessed per row activation
system.mem_ctrls.bytesPerActivate::1024-1151            6      0.01%    100.00% # Bytes accessed per row activation
system.mem_ctrls.bytesPerActivate::total        94753                       # Bytes accessed per row activation
system.mem_ctrls.rdPerTurnAround::samples           37                       # Reads before turning the bus around for writes
system.mem_ctrls.rdPerTurnAround::mean    4610.621622                       # Reads before turning the bus around for writes
system.mem_ctrls.rdPerTurnAround::gmean   4480.061324                       # Reads before turning the bus around for writes
system.mem_ctrls.rdPerTurnAround::stdev   1122.847208                       # Reads before turning the bus around for writes
system.mem_ctrls.rdPerTurnAround::2048-2303            1      2.70%      2.70% # Reads before turning the bus around for writes
system.mem_ctrls.rdPerTurnAround::2304-2559            1      2.70%      5.41% # Reads before turning the bus around for writes
system.mem_ctrls.rdPerTurnAround::3328-3583            2      5.41%     10.81% # Reads before turning the bus around for writes
system.mem_ctrls.rdPerTurnAround::3584-3839            3      8.11%     18.92% # Reads before turning the bus around for writes
system.mem_ctrls.rdPerTurnAround::3840-4095            4     10.81%     29.73% # Reads before turning the bus around for writes
system.mem_ctrls.rdPerTurnAround::4096-4351            6     16.22%     45.95% # Reads before turning the bus around for writes
system.mem_ctrls.rdPerTurnAround::4352-4607            6     16.22%     62.16% # Reads before turning the bus around for writes
system.mem_ctrls.rdPerTurnAround::4608-4863            2      5.41%     67.57% # Reads before turning the bus around for writes
system.mem_ctrls.rdPerTurnAround::4864-5119            2      5.41%     72.97% # Reads before turning the bus around for writes
system.mem_ctrls.rdPerTurnAround::5120-5375            3      8.11%     81.08% # Reads before turning the bus around for writes
system.mem_ctrls.rdPerTurnAround::5632-5887            4     10.81%     91.89% # Reads before turning the bus around for writes
system.mem_ctrls.rdPerTurnAround::5888-6143            1      2.70%     94.59% # Reads before turning the bus around for writes
system.mem_ctrls.rdPerTurnAround::7424-7679            1      2.70%     97.30% # Reads before turning the bus around for writes
system.mem_ctrls.rdPerTurnAround::7680-7935            1      2.70%    100.00% # Reads before turning the bus around for writes
system.mem_ctrls.rdPerTurnAround::total            37                       # Reads before turning the bus around for writes
system.mem_ctrls.wrPerTurnAround::samples           37                       # Writes before turning the bus around for reads
system.mem_ctrls.wrPerTurnAround::mean      16.054054                       # Writes before turning the bus around for reads
system.mem_ctrls.wrPerTurnAround::gmean     16.051014                       # Writes before turning the bus around for reads
system.mem_ctrls.wrPerTurnAround::stdev      0.328798                       # Writes before turning the bus around for reads
system.mem_ctrls.wrPerTurnAround::16               36     97.30%     97.30% # Writes before turning the bus around for reads
system.mem_ctrls.wrPerTurnAround::18                1      2.70%    100.00% # Writes before turning the bus around for reads
system.mem_ctrls.wrPerTurnAround::total            37                       # Writes before turning the bus around for reads
system.mem_ctrls.totQLat                   4346793500                       # Total ticks spent queuing
system.mem_ctrls.totMemAccLat              7558462250                       # Total ticks spent from burst creation until serviced by the DRAM
system.mem_ctrls.totBusLat                  856445000                       # Total ticks spent in databus transfers
system.mem_ctrls.avgQLat                     25376.96                       # Average queueing delay per DRAM burst
system.mem_ctrls.avgBusLat                    5000.00                       # Average bus latency per DRAM burst
system.mem_ctrls.avgMemAccLat                44126.96                       # Average memory access latency per DRAM burst
system.mem_ctrls.avgRdBW                       718.04                       # Average DRAM read bandwidth in MiByte/s
system.mem_ctrls.avgWrBW                         2.49                       # Average achieved write bandwidth in MiByte/s
system.mem_ctrls.avgRdBWSys                    718.35                       # Average system read bandwidth in MiByte/s
system.mem_ctrls.avgWrBWSys                      2.52                       # Average system write bandwidth in MiByte/s
system.mem_ctrls.peakBW                      12800.00                       # Theoretical peak bandwidth in MiByte/s
system.mem_ctrls.busUtil                         5.63                       # Data bus utilization in percentage
system.mem_ctrls.busUtilRead                     5.61                       # Data bus utilization in percentage for reads
system.mem_ctrls.busUtilWrite                    0.02                       # Data bus utilization in percentage for writes
system.mem_ctrls.avgRdQLen                       1.28                       # Average read queue length when enqueuing
system.mem_ctrls.avgWrQLen                      25.61                       # Average write queue length when enqueuing
system.mem_ctrls.readRowHits                    76629                       # Number of row buffer hits during reads
system.mem_ctrls.writeRowHits                     495                       # Number of row buffer hits during writes
system.mem_ctrls.readRowHitRate                 44.74                       # Row buffer hit rate for reads
system.mem_ctrls.writeRowHitRate                82.36                       # Row buffer hit rate for writes
system.mem_ctrls.avgGap                      88782.03                       # Average gap between requests
system.mem_ctrls.pageHitRate                    44.87                       # Row buffer hit rate, read and write combined
system.mem_ctrls_0.actEnergy                333031020                       # Energy for activate commands per rank (pJ)
system.mem_ctrls_0.preEnergy                176998800                       # Energy for precharge commands per rank (pJ)
system.mem_ctrls_0.readEnergy               598389120                       # Energy for read commands per rank (pJ)
system.mem_ctrls_0.writeEnergy                 960480                       # Energy for write commands per rank (pJ)
system.mem_ctrls_0.refreshEnergy         1205309040.000000                       # Energy for refresh commands per rank (pJ)
system.mem_ctrls_0.actBackEnergy           1487665230                       # Energy for active background per rank (pJ)
system.mem_ctrls_0.preBackEnergy             24423840                       # Energy for precharge background per rank (pJ)
system.mem_ctrls_0.actPowerDownEnergy      5267643600                       # Energy for active power-down per rank (pJ)
system.mem_ctrls_0.prePowerDownEnergy       149555040                       # Energy for precharge power-down per rank (pJ)
system.mem_ctrls_0.selfRefreshEnergy                0                       # Energy for self refresh per rank (pJ)
system.mem_ctrls_0.totalEnergy             9243976170                       # Total energy per rank (pJ)
system.mem_ctrls_0.averagePower            605.473755                       # Core power per rank (mW)
system.mem_ctrls_0.totalIdleTime          11941079875                       # Total Idle time Per DRAM Rank
system.mem_ctrls_0.memoryStateTime::IDLE      9978000                       # Time in different power states
system.mem_ctrls_0.memoryStateTime::REF     509860000                       # Time in different power states
system.mem_ctrls_0.memoryStateTime::SREF            0                       # Time in different power states
system.mem_ctrls_0.memoryStateTime::PRE_PDN    389822500                       # Time in different power states
system.mem_ctrls_0.memoryStateTime::ACT    2806426250                       # Time in different power states
system.mem_ctrls_0.memoryStateTime::ACT_PDN  11551257375                       # Time in different power states
system.mem_ctrls_1.actEnergy                343541100                       # Energy for activate commands per rank (pJ)
system.mem_ctrls_1.preEnergy                182588835                       # Energy for precharge commands per rank (pJ)
system.mem_ctrls_1.readEnergy               624607200                       # Energy for read commands per rank (pJ)
system.mem_ctrls_1.writeEnergy                2140200                       # Energy for write commands per rank (pJ)
system.mem_ctrls_1.refreshEnergy         1205309040.000000                       # Energy for refresh commands per rank (pJ)
system.mem_ctrls_1.actBackEnergy           1536315300                       # Energy for active background per rank (pJ)
system.mem_ctrls_1.preBackEnergy             24358560                       # Energy for precharge background per rank (pJ)
system.mem_ctrls_1.actPowerDownEnergy      5224902720                       # Energy for active power-down per rank (pJ)
system.mem_ctrls_1.prePowerDownEnergy       143459040                       # Energy for precharge power-down per rank (pJ)
system.mem_ctrls_1.selfRefreshEnergy          1292940                       # Energy for self refresh per rank (pJ)
system.mem_ctrls_1.totalEnergy             9288514935                       # Total energy per rank (pJ)
system.mem_ctrls_1.averagePower            608.391011                       # Core power per rank (mW)
system.mem_ctrls_1.totalIdleTime          11833921625                       # Total Idle time Per DRAM Rank
system.mem_ctrls_1.memoryStateTime::IDLE      9930000                       # Time in different power states
system.mem_ctrls_1.memoryStateTime::REF     509872000                       # Time in different power states
system.mem_ctrls_1.memoryStateTime::SREF      3086500                       # Time in different power states
system.mem_ctrls_1.memoryStateTime::PRE_PDN    373958250                       # Time in different power states
system.mem_ctrls_1.memoryStateTime::ACT    2912978000                       # Time in different power states
system.mem_ctrls_1.memoryStateTime::ACT_PDN  11457519375                       # Time in different power states
system.pwrStateResidencyTicks::UNDEFINED  15267344125                       # Cumulative time (in ticks) in various power states
system.cpu0.branchPred.lookups                2235549                       # Number of BP lookups
system.cpu0.branchPred.condPredicted          2235549                       # Number of conditional branches predicted
system.cpu0.branchPred.condIncorrect            94532                       # Number of conditional branches incorrect
system.cpu0.branchPred.BTBLookups             1689888                       # Number of BTB lookups
system.cpu0.branchPred.BTBHits                      0                       # Number of BTB hits
system.cpu0.branchPred.BTBCorrect                   0                       # Number of correct BTB predictions (this stat may not work properly.
system.cpu0.branchPred.BTBHitPct             0.000000                       # BTB Hit Percentage
system.cpu0.branchPred.usedRAS                  63776                       # Number of times the RAS was used to get a target.
system.cpu0.branchPred.RASInCorrect              8653                       # Number of incorrect RAS predictions.
system.cpu0.branchPred.indirectLookups        1689888                       # Number of indirect predictor lookups.
system.cpu0.branchPred.indirectHits            951770                       # Number of indirect target hits.
system.cpu0.branchPred.indirectMisses          738118                       # Number of indirect misses.
system.cpu0.branchPredindirectMispredicted        33461                       # Number of mispredicted indirect branches.
system.cpu_voltage_domain.voltage                   1                       # Voltage in Volts
system.cpu_clk_domain.clock                       500                       # Clock period in ticks
system.cpu0.dtb.walker.pwrStateResidencyTicks::UNDEFINED  15267344125                       # Cumulative time (in ticks) in various power states
system.cpu0.dtb.rdAccesses                    1065533                       # TLB accesses on read requests
system.cpu0.dtb.wrAccesses                      76700                       # TLB accesses on write requests
system.cpu0.dtb.rdMisses                       219102                       # TLB misses on read requests
system.cpu0.dtb.wrMisses                         1312                       # TLB misses on write requests
system.cpu0.apic_clk_domain.clock                8000                       # Clock period in ticks
system.cpu0.interrupts.pwrStateResidencyTicks::UNDEFINED  15267344125                       # Cumulative time (in ticks) in various power states
system.cpu0.itb.walker.pwrStateResidencyTicks::UNDEFINED  15267344125                       # Cumulative time (in ticks) in various power states
system.cpu0.itb.rdAccesses                          0                       # TLB accesses on read requests
system.cpu0.itb.wrAccesses                    1867488                       # TLB accesses on write requests
system.cpu0.itb.rdMisses                            0                       # TLB misses on read requests
system.cpu0.itb.wrMisses                         4444                       # TLB misses on write requests
system.cpu0.workload.numSyscalls                    1                       # Number of system calls
system.cpu0.pwrStateResidencyTicks::ON    15267344125                       # Cumulative time (in ticks) in various power states
system.cpu0.numCycles                        30534688                       # number of cpu cycles simulated
system.cpu0.numWorkItemsStarted                     0                       # number of work items this cpu started
system.cpu0.numWorkItemsCompleted                   0                       # number of work items this cpu completed
system.cpu0.fetch.icacheStallCycles           1910763                       # Number of cycles fetch is stalled on an Icache miss
system.cpu0.fetch.Insts                       6516872                       # Number of instructions fetch has processed
system.cpu0.fetch.Branches                    2235549                       # Number of branches that fetch encountered
system.cpu0.fetch.predictedBranches           1015546                       # Number of branches that fetch has predicted taken
system.cpu0.fetch.Cycles                     28459640                       # Number of cycles fetch has run and was not squashing or blocked
system.cpu0.fetch.SquashCycles                 191808                       # Number of cycles fetch has spent squashing
system.cpu0.fetch.TlbCycles                       539                       # Number of cycles fetch has spent waiting for tlb
system.cpu0.fetch.MiscStallCycles                 994                       # Number of cycles fetch has spent waiting on interrupts, or bad addresses, or out of MSHRs
system.cpu0.fetch.PendingTrapStallCycles        36649                       # Number of stall cycles due to pending traps
system.cpu0.fetch.CacheLines                  1863044                       # Number of cache lines fetched
system.cpu0.fetch.IcacheSquashes                14035                       # Number of outstanding Icache misses that were squashed
system.cpu0.fetch.ItlbSquashes                      5                       # Number of outstanding ITLB misses that were squashed
system.cpu0.fetch.rateDist::samples          30504489                       # Number of instructions fetched each cycle (Total)
system.cpu0.fetch.rateDist::mean             0.429720                       # Number of instructions fetched each cycle (Total)
system.cpu0.fetch.rateDist::stdev            1.637644                       # Number of instructions fetched each cycle (Total)
system.cpu0.fetch.rateDist::underflows              0      0.00%      0.00% # Number of instructions fetched each cycle (Total)
system.cpu0.fetch.rateDist::0                27974916     91.71%     91.71% # Number of instructions fetched each cycle (Total)
system.cpu0.fetch.rateDist::1                   33804      0.11%     91.82% # Number of instructions fetched each cycle (Total)
system.cpu0.fetch.rateDist::2                  916488      3.00%     94.82% # Number of instructions fetched each cycle (Total)
system.cpu0.fetch.rateDist::3                   36379      0.12%     94.94% # Number of instructions fetched each cycle (Total)
system.cpu0.fetch.rateDist::4                  175445      0.58%     95.52% # Number of instructions fetched each cycle (Total)
system.cpu0.fetch.rateDist::5                   82578      0.27%     95.79% # Number of instructions fetched each cycle (Total)
system.cpu0.fetch.rateDist::6                  114933      0.38%     96.16% # Number of instructions fetched each cycle (Total)
system.cpu0.fetch.rateDist::7                   31378      0.10%     96.27% # Number of instructions fetched each cycle (Total)
system.cpu0.fetch.rateDist::8                 1138568      3.73%    100.00% # Number of instructions fetched each cycle (Total)
system.cpu0.fetch.rateDist::overflows               0      0.00%    100.00% # Number of instructions fetched each cycle (Total)
system.cpu0.fetch.rateDist::min_value               0                       # Number of instructions fetched each cycle (Total)
system.cpu0.fetch.rateDist::max_value               8                       # Number of instructions fetched each cycle (Total)
system.cpu0.fetch.rateDist::total            30504489                       # Number of instructions fetched each cycle (Total)
system.cpu0.fetch.branchRate                 0.073213                       # Number of branch fetches per cycle
system.cpu0.fetch.rate                       0.213425                       # Number of inst fetches per cycle
system.cpu0.decode.IdleCycles                  963264                       # Number of cycles decode is idle
system.cpu0.decode.BlockedCycles             27753983                       # Number of cycles decode is blocked
system.cpu0.decode.RunCycles                  1269345                       # Number of cycles decode is running
system.cpu0.decode.UnblockCycles               421993                       # Number of cycles decode is unblocking
system.cpu0.decode.SquashCycles                 95904                       # Number of cycles decode is squashing
system.cpu0.decode.DecodedInsts              10951970                       # Number of instructions handled by decode
system.cpu0.rename.SquashCycles                 95904                       # Number of cycles rename is squashing
system.cpu0.rename.IdleCycles                 1101697                       # Number of cycles rename is idle
system.cpu0.rename.BlockCycles               26223595                       # Number of cycles rename is blocking
system.cpu0.rename.serializeStallCycles         26953                       # count of cycles rename stalled for serializing inst
system.cpu0.rename.RunCycles                  1456812                       # Number of cycles rename is running
system.cpu0.rename.UnblockCycles              1599528                       # Number of cycles rename is unblocking
system.cpu0.rename.RenamedInsts              10508827                       # Number of instructions processed by rename
system.cpu0.rename.ROBFullEvents                61533                       # Number of times rename has blocked due to ROB full
system.cpu0.rename.IQFullEvents               1345139                       # Number of times rename has blocked due to IQ full
system.cpu0.rename.LQFullEvents                184369                       # Number of times rename has blocked due to LQ full
system.cpu0.rename.SQFullEvents                  2692                       # Number of times rename has blocked due to SQ full
system.cpu0.rename.RenamedOperands           12537651                       # Number of destination operands rename has renamed
system.cpu0.rename.RenameLookups             29233876                       # Number of register rename lookups that rename has made
system.cpu0.rename.int_rename_lookups        13826555                       # Number of integer rename lookups
system.cpu0.rename.fp_rename_lookups            62972                       # Number of floating rename lookups
system.cpu0.rename.CommittedMaps              4594539                       # Number of HB maps that are committed
system.cpu0.rename.UndoneMaps                 7943180                       # Number of HB maps that are undone due to squashing
system.cpu0.rename.serializingInsts               484                       # count of serializing insts renamed
system.cpu0.rename.tempSerializingInsts           594                       # count of temporary serializing insts renamed
system.cpu0.rename.skidInsts                  2610253                       # count of insts added to the skid buffer
system.cpu0.memDep0.insertedLoads             1873049                       # Number of loads inserted to the mem dependence unit.
system.cpu0.memDep0.insertedStores             110662                       # Number of stores inserted to the mem dependence unit.
system.cpu0.memDep0.conflictingLoads             5095                       # Number of conflicting loads.
system.cpu0.memDep0.conflictingStores            6620                       # Number of conflicting stores.
system.cpu0.iq.iqInstsAdded                   9937270                       # Number of instructions added to the IQ (excludes non-spec)
system.cpu0.iq.iqNonSpecInstsAdded               6558                       # Number of non-speculative instructions added to the IQ
system.cpu0.iq.iqInstsIssued                  7144043                       # Number of instructions issued
system.cpu0.iq.iqSquashedInstsIssued            10010                       # Number of squashed instructions issued
system.cpu0.iq.iqSquashedInstsExamined        6116958                       # Number of squashed instructions iterated over during squash; mainly for profiling
system.cpu0.iq.iqSquashedOperandsExamined     12890129                       # Number of squashed operands that are examined and possibly removed from graph
system.cpu0.iq.iqSquashedNonSpecRemoved          6557                       # Number of squashed non-spec instructions that were removed
system.cpu0.iq.issued_per_cycle::samples     30504489                       # Number of insts issued each cycle
system.cpu0.iq.issued_per_cycle::mean        0.234196                       # Number of insts issued each cycle
system.cpu0.iq.issued_per_cycle::stdev       0.886946                       # Number of insts issued each cycle
system.cpu0.iq.issued_per_cycle::underflows            0      0.00%      0.00% # Number of insts issued each cycle
system.cpu0.iq.issued_per_cycle::0           27660180     90.68%     90.68% # Number of insts issued each cycle
system.cpu0.iq.issued_per_cycle::1            1084040      3.55%     94.23% # Number of insts issued each cycle
system.cpu0.iq.issued_per_cycle::2             596040      1.95%     96.18% # Number of insts issued each cycle
system.cpu0.iq.issued_per_cycle::3             406456      1.33%     97.52% # Number of insts issued each cycle
system.cpu0.iq.issued_per_cycle::4             432972      1.42%     98.94% # Number of insts issued each cycle
system.cpu0.iq.issued_per_cycle::5             138924      0.46%     99.39% # Number of insts issued each cycle
system.cpu0.iq.issued_per_cycle::6             110812      0.36%     99.75% # Number of insts issued each cycle
system.cpu0.iq.issued_per_cycle::7              43345      0.14%     99.90% # Number of insts issued each cycle
system.cpu0.iq.issued_per_cycle::8              31720      0.10%    100.00% # Number of insts issued each cycle
system.cpu0.iq.issued_per_cycle::overflows            0      0.00%    100.00% # Number of insts issued each cycle
system.cpu0.iq.issued_per_cycle::min_value            0                       # Number of insts issued each cycle
system.cpu0.iq.issued_per_cycle::max_value            8                       # Number of insts issued each cycle
system.cpu0.iq.issued_per_cycle::total       30504489                       # Number of insts issued each cycle
system.cpu0.iq.fu_full::No_OpClass                  0      0.00%      0.00% # attempts to use FU when none available
system.cpu0.iq.fu_full::IntAlu                  18362     72.29%     72.29% # attempts to use FU when none available
system.cpu0.iq.fu_full::IntMult                     0      0.00%     72.29% # attempts to use FU when none available
system.cpu0.iq.fu_full::IntDiv                      0      0.00%     72.29% # attempts to use FU when none available
system.cpu0.iq.fu_full::FloatAdd                 1798      7.08%     79.37% # attempts to use FU when none available
system.cpu0.iq.fu_full::FloatCmp                    0      0.00%     79.37% # attempts to use FU when none available
system.cpu0.iq.fu_full::FloatCvt                    0      0.00%     79.37% # attempts to use FU when none available
system.cpu0.iq.fu_full::FloatMult                   0      0.00%     79.37% # attempts to use FU when none available
system.cpu0.iq.fu_full::FloatMultAcc                0      0.00%     79.37% # attempts to use FU when none available
system.cpu0.iq.fu_full::FloatDiv                    0      0.00%     79.37% # attempts to use FU when none available
system.cpu0.iq.fu_full::FloatMisc                   0      0.00%     79.37% # attempts to use FU when none available
system.cpu0.iq.fu_full::FloatSqrt                   0      0.00%     79.37% # attempts to use FU when none available
system.cpu0.iq.fu_full::SimdAdd                     0      0.00%     79.37% # attempts to use FU when none available
system.cpu0.iq.fu_full::SimdAddAcc                  0      0.00%     79.37% # attempts to use FU when none available
system.cpu0.iq.fu_full::SimdAlu                     0      0.00%     79.37% # attempts to use FU when none available
system.cpu0.iq.fu_full::SimdCmp                     0      0.00%     79.37% # attempts to use FU when none available
system.cpu0.iq.fu_full::SimdCvt                     0      0.00%     79.37% # attempts to use FU when none available
system.cpu0.iq.fu_full::SimdMisc                    0      0.00%     79.37% # attempts to use FU when none available
system.cpu0.iq.fu_full::SimdMult                    0      0.00%     79.37% # attempts to use FU when none available
system.cpu0.iq.fu_full::SimdMultAcc                 0      0.00%     79.37% # attempts to use FU when none available
system.cpu0.iq.fu_full::SimdShift                   0      0.00%     79.37% # attempts to use FU when none available
system.cpu0.iq.fu_full::SimdShiftAcc                0      0.00%     79.37% # attempts to use FU when none available
system.cpu0.iq.fu_full::SimdSqrt                    0      0.00%     79.37% # attempts to use FU when none available
system.cpu0.iq.fu_full::SimdFloatAdd                0      0.00%     79.37% # attempts to use FU when none available
system.cpu0.iq.fu_full::SimdFloatAlu                0      0.00%     79.37% # attempts to use FU when none available
system.cpu0.iq.fu_full::SimdFloatCmp                0      0.00%     79.37% # attempts to use FU when none available
system.cpu0.iq.fu_full::SimdFloatCvt                0      0.00%     79.37% # attempts to use FU when none available
system.cpu0.iq.fu_full::SimdFloatDiv                0      0.00%     79.37% # attempts to use FU when none available
system.cpu0.iq.fu_full::SimdFloatMisc               0      0.00%     79.37% # attempts to use FU when none available
system.cpu0.iq.fu_full::SimdFloatMult               0      0.00%     79.37% # attempts to use FU when none available
system.cpu0.iq.fu_full::SimdFloatMultAcc            0      0.00%     79.37% # attempts to use FU when none available
system.cpu0.iq.fu_full::SimdFloatSqrt               0      0.00%     79.37% # attempts to use FU when none available
system.cpu0.iq.fu_full::MemRead                  4525     17.81%     97.19% # attempts to use FU when none available
system.cpu0.iq.fu_full::MemWrite                  419      1.65%     98.83% # attempts to use FU when none available
system.cpu0.iq.fu_full::FloatMemRead              291      1.15%     99.98% # attempts to use FU when none available
system.cpu0.iq.fu_full::FloatMemWrite               5      0.02%    100.00% # attempts to use FU when none available
system.cpu0.iq.fu_full::IprAccess                   0      0.00%    100.00% # attempts to use FU when none available
system.cpu0.iq.fu_full::InstPrefetch                0      0.00%    100.00% # attempts to use FU when none available
system.cpu0.iq.FU_type_0::No_OpClass            23725      0.33%      0.33% # Type of FU issued
system.cpu0.iq.FU_type_0::IntAlu              5877092     82.27%     82.60% # Type of FU issued
system.cpu0.iq.FU_type_0::IntMult                1238      0.02%     82.62% # Type of FU issued
system.cpu0.iq.FU_type_0::IntDiv                16559      0.23%     82.85% # Type of FU issued
system.cpu0.iq.FU_type_0::FloatAdd              22871      0.32%     83.17% # Type of FU issued
system.cpu0.iq.FU_type_0::FloatCmp                  0      0.00%     83.17% # Type of FU issued
system.cpu0.iq.FU_type_0::FloatCvt                  0      0.00%     83.17% # Type of FU issued
system.cpu0.iq.FU_type_0::FloatMult                 0      0.00%     83.17% # Type of FU issued
system.cpu0.iq.FU_type_0::FloatMultAcc              0      0.00%     83.17% # Type of FU issued
system.cpu0.iq.FU_type_0::FloatDiv                  0      0.00%     83.17% # Type of FU issued
system.cpu0.iq.FU_type_0::FloatMisc                 0      0.00%     83.17% # Type of FU issued
system.cpu0.iq.FU_type_0::FloatSqrt                 0      0.00%     83.17% # Type of FU issued
system.cpu0.iq.FU_type_0::SimdAdd                   0      0.00%     83.17% # Type of FU issued
system.cpu0.iq.FU_type_0::SimdAddAcc                0      0.00%     83.17% # Type of FU issued
system.cpu0.iq.FU_type_0::SimdAlu                   0      0.00%     83.17% # Type of FU issued
system.cpu0.iq.FU_type_0::SimdCmp                   0      0.00%     83.17% # Type of FU issued
system.cpu0.iq.FU_type_0::SimdCvt                   0      0.00%     83.17% # Type of FU issued
system.cpu0.iq.FU_type_0::SimdMisc                  0      0.00%     83.17% # Type of FU issued
system.cpu0.iq.FU_type_0::SimdMult                  0      0.00%     83.17% # Type of FU issued
system.cpu0.iq.FU_type_0::SimdMultAcc               0      0.00%     83.17% # Type of FU issued
system.cpu0.iq.FU_type_0::SimdShift                 0      0.00%     83.17% # Type of FU issued
system.cpu0.iq.FU_type_0::SimdShiftAcc              0      0.00%     83.17% # Type of FU issued
system.cpu0.iq.FU_type_0::SimdSqrt                  0      0.00%     83.17% # Type of FU issued
system.cpu0.iq.FU_type_0::SimdFloatAdd              0      0.00%     83.17% # Type of FU issued
system.cpu0.iq.FU_type_0::SimdFloatAlu              0      0.00%     83.17% # Type of FU issued
system.cpu0.iq.FU_type_0::SimdFloatCmp              0      0.00%     83.17% # Type of FU issued
system.cpu0.iq.FU_type_0::SimdFloatCvt              0      0.00%     83.17% # Type of FU issued
system.cpu0.iq.FU_type_0::SimdFloatDiv              0      0.00%     83.17% # Type of FU issued
system.cpu0.iq.FU_type_0::SimdFloatMisc             0      0.00%     83.17% # Type of FU issued
system.cpu0.iq.FU_type_0::SimdFloatMult             0      0.00%     83.17% # Type of FU issued
system.cpu0.iq.FU_type_0::SimdFloatMultAcc            0      0.00%     83.17% # Type of FU issued
system.cpu0.iq.FU_type_0::SimdFloatSqrt             0      0.00%     83.17% # Type of FU issued
system.cpu0.iq.FU_type_0::MemRead             1114954     15.61%     98.77% # Type of FU issued
system.cpu0.iq.FU_type_0::MemWrite              82501      1.15%     99.93% # Type of FU issued
system.cpu0.iq.FU_type_0::FloatMemRead           5089      0.07%    100.00% # Type of FU issued
system.cpu0.iq.FU_type_0::FloatMemWrite            14      0.00%    100.00% # Type of FU issued
system.cpu0.iq.FU_type_0::IprAccess                 0      0.00%    100.00% # Type of FU issued
system.cpu0.iq.FU_type_0::InstPrefetch              0      0.00%    100.00% # Type of FU issued
system.cpu0.iq.FU_type_0::total               7144043                       # Type of FU issued
system.cpu0.iq.rate                          0.233965                       # Inst issue rate
system.cpu0.iq.fu_busy_cnt                      25400                       # FU busy when requested
system.cpu0.iq.fu_busy_rate                  0.003555                       # FU busy rate (busy events/executed inst)
system.cpu0.iq.int_inst_queue_reads          44769695                       # Number of integer instruction queue reads
system.cpu0.iq.int_inst_queue_writes         16006502                       # Number of integer instruction queue writes
system.cpu0.iq.int_inst_queue_wakeup_accesses      6833677                       # Number of integer instruction queue wakeup accesses
system.cpu0.iq.fp_inst_queue_reads              58290                       # Number of floating instruction queue reads
system.cpu0.iq.fp_inst_queue_writes             54288                       # Number of floating instruction queue writes
system.cpu0.iq.fp_inst_queue_wakeup_accesses        25056                       # Number of floating instruction queue wakeup accesses
system.cpu0.iq.vec_inst_queue_reads                 0                       # Number of vector instruction queue reads
system.cpu0.iq.vec_inst_queue_writes                0                       # Number of vector instruction queue writes
system.cpu0.iq.vec_inst_queue_wakeup_accesses            0                       # Number of vector instruction queue wakeup accesses
system.cpu0.iq.int_alu_accesses               7115647                       # Number of integer alu accesses
system.cpu0.iq.fp_alu_accesses                  30071                       # Number of floating point alu accesses
system.cpu0.iq.vec_alu_accesses                     0                       # Number of vector alu accesses
system.cpu0.iew.lsq.thread0.forwLoads            7670                       # Number of loads that had data forwarded from stores
system.cpu0.iew.lsq.thread0.invAddrLoads            0                       # Number of loads ignored due to an invalid address
system.cpu0.iew.lsq.thread0.squashedLoads      1167667                       # Number of loads squashed
system.cpu0.iew.lsq.thread0.ignoredResponses          310                       # Number of memory responses ignored because the instruction is squashed
system.cpu0.iew.lsq.thread0.memOrderViolation            4                       # Number of memory ordering violations
system.cpu0.iew.lsq.thread0.squashedStores        62395                       # Number of stores squashed
system.cpu0.iew.lsq.thread0.invAddrSwpfs            0                       # Number of software prefetches ignored due to an invalid address
system.cpu0.iew.lsq.thread0.blockedLoads            0                       # Number of blocked loads due to partial load-store forwarding
system.cpu0.iew.lsq.thread0.rescheduledLoads           69                       # Number of loads that were rescheduled
system.cpu0.iew.lsq.thread0.cacheBlocked         2127                       # Number of times an access to memory failed due to the cache being blocked
system.cpu0.iew.iewIdleCycles                       0                       # Number of cycles IEW is idle
system.cpu0.iew.iewSquashCycles                 95904                       # Number of cycles IEW is squashing
system.cpu0.iew.iewBlockCycles               24208042                       # Number of cycles IEW is blocking
system.cpu0.iew.iewUnblockCycles               299331                       # Number of cycles IEW is unblocking
system.cpu0.iew.iewDispatchedInsts            9943828                       # Number of instructions dispatched to IQ
system.cpu0.iew.iewDispSquashedInsts             4918                       # Number of squashed instructions skipped by dispatch
system.cpu0.iew.iewDispLoadInsts              1873049                       # Number of dispatched load instructions
system.cpu0.iew.iewDispStoreInsts              110662                       # Number of dispatched store instructions
system.cpu0.iew.iewDispNonSpecInsts              2480                       # Number of dispatched non-speculative instructions
system.cpu0.iew.iewIQFullEvents                 23767                       # Number of times the IQ has become full, causing a stall
system.cpu0.iew.iewLSQFullEvents                41822                       # Number of times the LSQ has become full, causing a stall
system.cpu0.iew.memOrderViolationEvents             4                       # Number of memory order violations
system.cpu0.iew.predictedTakenIncorrect         50180                       # Number of branches that were predicted taken incorrectly
system.cpu0.iew.predictedNotTakenIncorrect        56619                       # Number of branches that were predicted not taken incorrectly
system.cpu0.iew.branchMispredicts              106799                       # Number of branch mispredicts detected at execute
system.cpu0.iew.iewExecutedInsts              7004868                       # Number of executed instructions
system.cpu0.iew.iewExecLoadInsts              1065075                       # Number of load instructions executed
system.cpu0.iew.iewExecSquashedInsts           139175                       # Number of squashed instructions skipped in execute
system.cpu0.iew.exec_swp                            0                       # number of swp insts executed
system.cpu0.iew.exec_nop                            0                       # number of nop insts executed
system.cpu0.iew.exec_refs                     1141752                       # number of memory reference insts executed
system.cpu0.iew.exec_branches                  840939                       # Number of branches executed
system.cpu0.iew.exec_stores                     76677                       # Number of stores executed
system.cpu0.iew.exec_rate                    0.229407                       # Inst execution rate
system.cpu0.iew.wb_sent                       6884335                       # cumulative count of insts sent to commit
system.cpu0.iew.wb_count                      6858733                       # cumulative count of insts written-back
system.cpu0.iew.wb_producers                  5102063                       # num instructions producing a value
system.cpu0.iew.wb_consumers                  8107694                       # num instructions consuming a value
system.cpu0.iew.wb_rate                      0.224621                       # insts written-back per cycle
system.cpu0.iew.wb_fanout                    0.629287                       # average fanout of values written-back
system.cpu0.commit.commitSquashedInsts        6117428                       # The number of squashed insts skipped by commit
system.cpu0.commit.commitNonSpecStalls              1                       # The number of times commit has been forced to stall to communicate backwards
system.cpu0.commit.branchMispredicts            95901                       # The number of times a branch was mispredicted
system.cpu0.commit.committed_per_cycle::samples     29642817                       # Number of insts commited each cycle
system.cpu0.commit.committed_per_cycle::mean     0.129101                       # Number of insts commited each cycle
system.cpu0.commit.committed_per_cycle::stdev     0.677512                       # Number of insts commited each cycle
system.cpu0.commit.committed_per_cycle::underflows            0      0.00%      0.00% # Number of insts commited each cycle
system.cpu0.commit.committed_per_cycle::0     28042616     94.60%     94.60% # Number of insts commited each cycle
system.cpu0.commit.committed_per_cycle::1       721199      2.43%     97.03% # Number of insts commited each cycle
system.cpu0.commit.committed_per_cycle::2       177099      0.60%     97.63% # Number of insts commited each cycle
system.cpu0.commit.committed_per_cycle::3       466350      1.57%     99.21% # Number of insts commited each cycle
system.cpu0.commit.committed_per_cycle::4        86818      0.29%     99.50% # Number of insts commited each cycle
system.cpu0.commit.committed_per_cycle::5        52676      0.18%     99.68% # Number of insts commited each cycle
system.cpu0.commit.committed_per_cycle::6         9979      0.03%     99.71% # Number of insts commited each cycle
system.cpu0.commit.committed_per_cycle::7         6688      0.02%     99.73% # Number of insts commited each cycle
system.cpu0.commit.committed_per_cycle::8        79392      0.27%    100.00% # Number of insts commited each cycle
system.cpu0.commit.committed_per_cycle::overflows            0      0.00%    100.00% # Number of insts commited each cycle
system.cpu0.commit.committed_per_cycle::min_value            0                       # Number of insts commited each cycle
system.cpu0.commit.committed_per_cycle::max_value            8                       # Number of insts commited each cycle
system.cpu0.commit.committed_per_cycle::total     29642817                       # Number of insts commited each cycle
system.cpu0.commit.committedInsts             1915966                       # Number of instructions committed
system.cpu0.commit.committedOps               3826925                       # Number of ops (including micro ops) committed
system.cpu0.commit.swp_count                        0                       # Number of s/w prefetches committed
system.cpu0.commit.refs                        753663                       # Number of memory references committed
system.cpu0.commit.loads                       705396                       # Number of loads committed
system.cpu0.commit.membars                          0                       # Number of memory barriers committed
system.cpu0.commit.branches                    674173                       # Number of branches committed
system.cpu0.commit.vec_insts                        0                       # Number of committed Vector instructions.
system.cpu0.commit.fp_insts                     19328                       # Number of committed floating point instructions.
system.cpu0.commit.int_insts                  3807418                       # Number of committed integer instructions.
system.cpu0.commit.function_calls                8504                       # Number of function calls committed.
system.cpu0.commit.op_class_0::No_OpClass         5810      0.15%      0.15% # Class of committed instruction
system.cpu0.commit.op_class_0::IntAlu         3036540     79.35%     79.50% # Class of committed instruction
system.cpu0.commit.op_class_0::IntMult            340      0.01%     79.51% # Class of committed instruction
system.cpu0.commit.op_class_0::IntDiv           14060      0.37%     79.87% # Class of committed instruction
system.cpu0.commit.op_class_0::FloatAdd         16512      0.43%     80.31% # Class of committed instruction
system.cpu0.commit.op_class_0::FloatCmp             0      0.00%     80.31% # Class of committed instruction
system.cpu0.commit.op_class_0::FloatCvt             0      0.00%     80.31% # Class of committed instruction
system.cpu0.commit.op_class_0::FloatMult            0      0.00%     80.31% # Class of committed instruction
system.cpu0.commit.op_class_0::FloatMultAcc            0      0.00%     80.31% # Class of committed instruction
system.cpu0.commit.op_class_0::FloatDiv             0      0.00%     80.31% # Class of committed instruction
system.cpu0.commit.op_class_0::FloatMisc            0      0.00%     80.31% # Class of committed instruction
system.cpu0.commit.op_class_0::FloatSqrt            0      0.00%     80.31% # Class of committed instruction
system.cpu0.commit.op_class_0::SimdAdd              0      0.00%     80.31% # Class of committed instruction
system.cpu0.commit.op_class_0::SimdAddAcc            0      0.00%     80.31% # Class of committed instruction
system.cpu0.commit.op_class_0::SimdAlu              0      0.00%     80.31% # Class of committed instruction
system.cpu0.commit.op_class_0::SimdCmp              0      0.00%     80.31% # Class of committed instruction
system.cpu0.commit.op_class_0::SimdCvt              0      0.00%     80.31% # Class of committed instruction
system.cpu0.commit.op_class_0::SimdMisc             0      0.00%     80.31% # Class of committed instruction
system.cpu0.commit.op_class_0::SimdMult             0      0.00%     80.31% # Class of committed instruction
system.cpu0.commit.op_class_0::SimdMultAcc            0      0.00%     80.31% # Class of committed instruction
system.cpu0.commit.op_class_0::SimdShift            0      0.00%     80.31% # Class of committed instruction
system.cpu0.commit.op_class_0::SimdShiftAcc            0      0.00%     80.31% # Class of committed instruction
system.cpu0.commit.op_class_0::SimdSqrt             0      0.00%     80.31% # Class of committed instruction
system.cpu0.commit.op_class_0::SimdFloatAdd            0      0.00%     80.31% # Class of committed instruction
system.cpu0.commit.op_class_0::SimdFloatAlu            0      0.00%     80.31% # Class of committed instruction
system.cpu0.commit.op_class_0::SimdFloatCmp            0      0.00%     80.31% # Class of committed instruction
system.cpu0.commit.op_class_0::SimdFloatCvt            0      0.00%     80.31% # Class of committed instruction
system.cpu0.commit.op_class_0::SimdFloatDiv            0      0.00%     80.31% # Class of committed instruction
system.cpu0.commit.op_class_0::SimdFloatMisc            0      0.00%     80.31% # Class of committed instruction
system.cpu0.commit.op_class_0::SimdFloatMult            0      0.00%     80.31% # Class of committed instruction
system.cpu0.commit.op_class_0::SimdFloatMultAcc            0      0.00%     80.31% # Class of committed instruction
system.cpu0.commit.op_class_0::SimdFloatSqrt            0      0.00%     80.31% # Class of committed instruction
system.cpu0.commit.op_class_0::MemRead         702580     18.36%     98.67% # Class of committed instruction
system.cpu0.commit.op_class_0::MemWrite         48267      1.26%     99.93% # Class of committed instruction
system.cpu0.commit.op_class_0::FloatMemRead         2816      0.07%    100.00% # Class of committed instruction
system.cpu0.commit.op_class_0::FloatMemWrite            0      0.00%    100.00% # Class of committed instruction
system.cpu0.commit.op_class_0::IprAccess            0      0.00%    100.00% # Class of committed instruction
system.cpu0.commit.op_class_0::InstPrefetch            0      0.00%    100.00% # Class of committed instruction
system.cpu0.commit.op_class_0::total          3826925                       # Class of committed instruction
system.cpu0.commit.bw_lim_events                79392                       # number cycles where commit BW limit reached
system.cpu0.rob.rob_reads                    39507778                       # The number of ROB reads
system.cpu0.rob.rob_writes                   20753038                       # The number of ROB writes
system.cpu0.timesIdled                            268                       # Number of times that the entire CPU went into an idle state and unscheduled itself
system.cpu0.idleCycles                          30199                       # Total number of cycles that the CPU has spent unscheduled due to idling
system.cpu0.committedInsts                    1915966                       # Number of Instructions Simulated
system.cpu0.committedOps                      3826925                       # Number of Ops (including micro ops) Simulated
system.cpu0.cpi                             15.936968                       # CPI: Cycles Per Instruction
system.cpu0.cpi_total                       15.936968                       # CPI: Total CPI of All Threads
system.cpu0.ipc                              0.062747                       # IPC: Instructions Per Cycle
system.cpu0.ipc_total                        0.062747                       # IPC: Total IPC of All Threads
system.cpu0.int_regfile_reads                 7074159                       # number of integer regfile reads
system.cpu0.int_regfile_writes                5954704                       # number of integer regfile writes
system.cpu0.fp_regfile_reads                    44305                       # number of floating regfile reads
system.cpu0.fp_regfile_writes                   22098                       # number of floating regfile writes
system.cpu0.cc_regfile_reads                  4449201                       # number of cc regfile reads
system.cpu0.cc_regfile_writes                 1913377                       # number of cc regfile writes
system.cpu0.misc_regfile_reads                3669111                       # number of misc regfile reads
system.cpu0.dcache.tags.pwrStateResidencyTicks::UNDEFINED  15267344125                       # Cumulative time (in ticks) in various power states
system.cpu0.dcache.tags.replacements           356904                       # number of replacements
system.cpu0.dcache.tags.tagsinuse                1024                       # Cycle average of tags in use
system.cpu0.dcache.tags.total_refs             475549                       # Total number of references to valid blocks.
system.cpu0.dcache.tags.sampled_refs           356904                       # Sample count of references to valid blocks.
system.cpu0.dcache.tags.avg_refs             1.332428                       # Average number of references to valid blocks.
system.cpu0.dcache.tags.warmup_cycle                0                       # Cycle when the warmup percentage was hit.
system.cpu0.dcache.tags.occ_blocks::cpu0.data         1024                       # Average occupied blocks per requestor
system.cpu0.dcache.tags.occ_percent::cpu0.data            1                       # Average percentage of cache occupancy
system.cpu0.dcache.tags.occ_percent::total            1                       # Average percentage of cache occupancy
system.cpu0.dcache.tags.occ_task_id_blocks::1024         1024                       # Occupied blocks per task id
system.cpu0.dcache.tags.age_task_id_blocks_1024::0          155                       # Occupied blocks per task id
system.cpu0.dcache.tags.age_task_id_blocks_1024::1          857                       # Occupied blocks per task id
system.cpu0.dcache.tags.age_task_id_blocks_1024::2           12                       # Occupied blocks per task id
system.cpu0.dcache.tags.occ_task_id_percent::1024            1                       # Percentage of cache occupancy per task id
system.cpu0.dcache.tags.tag_accesses          4751776                       # Number of tag accesses
system.cpu0.dcache.tags.data_accesses         4751776                       # Number of data accesses
system.cpu0.dcache.pwrStateResidencyTicks::UNDEFINED  15267344125                       # Cumulative time (in ticks) in various power states
system.cpu0.dcache.ReadReq_hits::cpu0.data       429306                       # number of ReadReq hits
system.cpu0.dcache.ReadReq_hits::total         429306                       # number of ReadReq hits
system.cpu0.dcache.WriteReq_hits::cpu0.data        46809                       # number of WriteReq hits
system.cpu0.dcache.WriteReq_hits::total         46809                       # number of WriteReq hits
system.cpu0.dcache.demand_hits::cpu0.data       476115                       # number of demand (read+write) hits
system.cpu0.dcache.demand_hits::total          476115                       # number of demand (read+write) hits
system.cpu0.dcache.overall_hits::cpu0.data       476115                       # number of overall hits
system.cpu0.dcache.overall_hits::total         476115                       # number of overall hits
system.cpu0.dcache.ReadReq_misses::cpu0.data       621145                       # number of ReadReq misses
system.cpu0.dcache.ReadReq_misses::total       621145                       # number of ReadReq misses
system.cpu0.dcache.WriteReq_misses::cpu0.data         1458                       # number of WriteReq misses
system.cpu0.dcache.WriteReq_misses::total         1458                       # number of WriteReq misses
system.cpu0.dcache.demand_misses::cpu0.data       622603                       # number of demand (read+write) misses
system.cpu0.dcache.demand_misses::total        622603                       # number of demand (read+write) misses
system.cpu0.dcache.overall_misses::cpu0.data       622603                       # number of overall misses
system.cpu0.dcache.overall_misses::total       622603                       # number of overall misses
system.cpu0.dcache.ReadReq_miss_latency::cpu0.data  34264349000                       # number of ReadReq miss cycles
system.cpu0.dcache.ReadReq_miss_latency::total  34264349000                       # number of ReadReq miss cycles
system.cpu0.dcache.WriteReq_miss_latency::cpu0.data     61678999                       # number of WriteReq miss cycles
system.cpu0.dcache.WriteReq_miss_latency::total     61678999                       # number of WriteReq miss cycles
system.cpu0.dcache.demand_miss_latency::cpu0.data  34326027999                       # number of demand (read+write) miss cycles
system.cpu0.dcache.demand_miss_latency::total  34326027999                       # number of demand (read+write) miss cycles
system.cpu0.dcache.overall_miss_latency::cpu0.data  34326027999                       # number of overall miss cycles
system.cpu0.dcache.overall_miss_latency::total  34326027999                       # number of overall miss cycles
system.cpu0.dcache.ReadReq_accesses::cpu0.data      1050451                       # number of ReadReq accesses(hits+misses)
system.cpu0.dcache.ReadReq_accesses::total      1050451                       # number of ReadReq accesses(hits+misses)
system.cpu0.dcache.WriteReq_accesses::cpu0.data        48267                       # number of WriteReq accesses(hits+misses)
system.cpu0.dcache.WriteReq_accesses::total        48267                       # number of WriteReq accesses(hits+misses)
system.cpu0.dcache.demand_accesses::cpu0.data      1098718                       # number of demand (read+write) accesses
system.cpu0.dcache.demand_accesses::total      1098718                       # number of demand (read+write) accesses
system.cpu0.dcache.overall_accesses::cpu0.data      1098718                       # number of overall (read+write) accesses
system.cpu0.dcache.overall_accesses::total      1098718                       # number of overall (read+write) accesses
system.cpu0.dcache.ReadReq_miss_rate::cpu0.data     0.591313                       # miss rate for ReadReq accesses
[...]
system.l2.ReadExReq_miss_rate::cpu0.data     0.320221                       # miss rate for ReadExReq accesses
system.l2.ReadExReq_miss_rate::total         0.320221                       # miss rate for ReadExReq accesses
system.l2.ReadCleanReq_miss_rate::cpu0.inst     0.500000                       # miss rate for ReadCleanReq accesses
system.l2.ReadCleanReq_miss_rate::total      0.500000                       # miss rate for ReadCleanReq accesses
system.l2.ReadSharedReq_miss_rate::cpu0.data     0.480794                       # miss rate for ReadSharedReq accesses
system.l2.ReadSharedReq_miss_rate::total     0.480794                       # miss rate for ReadSharedReq accesses
system.l2.demand_miss_rate::cpu0.inst        0.500000                       # miss rate for demand accesses
system.l2.demand_miss_rate::cpu0.data        0.480142                       # miss rate for demand accesses
system.l2.demand_miss_rate::total            0.480142                       # miss rate for demand accesses
system.l2.overall_miss_rate::cpu0.inst       0.500000                       # miss rate for overall accesses
system.l2.overall_miss_rate::cpu0.data       0.480142                       # miss rate for overall accesses
system.l2.overall_miss_rate::total           0.480142                       # miss rate for overall accesses
system.l2.ReadExReq_avg_miss_latency::cpu0.data 101006.465517                       # average ReadExReq miss latency
system.l2.ReadExReq_avg_miss_latency::total 101006.465517                       # average ReadExReq miss latency
system.l2.ReadCleanReq_avg_miss_latency::cpu0.inst       101000                       # average ReadCleanReq miss latency
system.l2.ReadCleanReq_avg_miss_latency::total       101000                       # average ReadCleanReq miss latency
system.l2.ReadSharedReq_avg_miss_latency::cpu0.data 95656.470705                       # average ReadSharedReq miss latency
system.l2.ReadSharedReq_avg_miss_latency::total 95656.470705                       # average ReadSharedReq miss latency
system.l2.demand_avg_miss_latency::cpu0.inst       101000                       # average overall miss latency
system.l2.demand_avg_miss_latency::cpu0.data 95670.956730                       # average overall miss latency
system.l2.demand_avg_miss_latency::total 95670.987827                       # average overall miss latency
system.l2.overall_avg_miss_latency::cpu0.inst       101000                       # average overall miss latency
system.l2.overall_avg_miss_latency::cpu0.data 95670.956730                       # average overall miss latency
system.l2.overall_avg_miss_latency::total 95670.987827                       # average overall miss latency
system.l2.blocked_cycles::no_mshrs                  0                       # number of cycles access was blocked
system.l2.blocked_cycles::no_targets                0                       # number of cycles access was blocked
system.l2.blocked::no_mshrs                         0                       # number of cycles access was blocked
system.l2.blocked::no_targets                       0                       # number of cycles access was blocked
system.l2.avg_blocked_cycles::no_mshrs            nan                       # average number of cycles each access was blocked
system.l2.avg_blocked_cycles::no_targets          nan                       # average number of cycles each access was blocked
system.l2.writebacks::writebacks                  601                       # number of writebacks
system.l2.writebacks::total                       601                       # number of writebacks
system.l2.ReadExReq_mshr_misses::cpu0.data          464                       # number of ReadExReq MSHR misses
system.l2.ReadExReq_mshr_misses::total            464                       # number of ReadExReq MSHR misses
system.l2.ReadCleanReq_mshr_misses::cpu0.inst            1                       # number of ReadCleanReq MSHR misses
system.l2.ReadCleanReq_mshr_misses::total            1                       # number of ReadCleanReq MSHR misses
system.l2.ReadSharedReq_mshr_misses::cpu0.data       170901                       # number of ReadSharedReq MSHR misses
system.l2.ReadSharedReq_mshr_misses::total       170901                       # number of ReadSharedReq MSHR misses
system.l2.demand_mshr_misses::cpu0.inst             1                       # number of demand (read+write) MSHR misses
system.l2.demand_mshr_misses::cpu0.data        171365                       # number of demand (read+write) MSHR misses
system.l2.demand_mshr_misses::total            171366                       # number of demand (read+write) MSHR misses
system.l2.overall_mshr_misses::cpu0.inst            1                       # number of overall MSHR misses
system.l2.overall_mshr_misses::cpu0.data       171365                       # number of overall MSHR misses
system.l2.overall_mshr_misses::total           171366                       # number of overall MSHR misses
system.l2.ReadExReq_mshr_miss_latency::cpu0.data     42227000                       # number of ReadExReq MSHR miss cycles
system.l2.ReadExReq_mshr_miss_latency::total     42227000                       # number of ReadExReq MSHR miss cycles
system.l2.ReadCleanReq_mshr_miss_latency::cpu0.inst        91000                       # number of ReadCleanReq MSHR miss cycles
system.l2.ReadCleanReq_mshr_miss_latency::total        91000                       # number of ReadCleanReq MSHR miss cycles
system.l2.ReadSharedReq_mshr_miss_latency::cpu0.data  14638796500                       # number of ReadSharedReq MSHR miss cycles
system.l2.ReadSharedReq_mshr_miss_latency::total  14638796500                       # number of ReadSharedReq MSHR miss cycles
system.l2.demand_mshr_miss_latency::cpu0.inst        91000                       # number of demand (read+write) MSHR miss cycles
system.l2.demand_mshr_miss_latency::cpu0.data  14681023500                       # number of demand (read+write) MSHR miss cycles
system.l2.demand_mshr_miss_latency::total  14681114500                       # number of demand (read+write) MSHR miss cycles
system.l2.overall_mshr_miss_latency::cpu0.inst        91000                       # number of overall MSHR miss cycles
system.l2.overall_mshr_miss_latency::cpu0.data  14681023500                       # number of overall MSHR miss cycles
system.l2.overall_mshr_miss_latency::total  14681114500                       # number of overall MSHR miss cycles
system.l2.ReadExReq_mshr_miss_rate::cpu0.data     0.320221                       # mshr miss rate for ReadExReq accesses
system.l2.ReadExReq_mshr_miss_rate::total     0.320221                       # mshr miss rate for ReadExReq accesses
system.l2.ReadCleanReq_mshr_miss_rate::cpu0.inst     0.500000                       # mshr miss rate for ReadCleanReq accesses
system.l2.ReadCleanReq_mshr_miss_rate::total     0.500000                       # mshr miss rate for ReadCleanReq accesses
system.l2.ReadSharedReq_mshr_miss_rate::cpu0.data     0.480794                       # mshr miss rate for ReadSharedReq accesses
system.l2.ReadSharedReq_mshr_miss_rate::total     0.480794                       # mshr miss rate for ReadSharedReq accesses
system.l2.demand_mshr_miss_rate::cpu0.inst     0.500000                       # mshr miss rate for demand accesses
system.l2.demand_mshr_miss_rate::cpu0.data     0.480142                       # mshr miss rate for demand accesses
system.l2.demand_mshr_miss_rate::total       0.480142                       # mshr miss rate for demand accesses
system.l2.overall_mshr_miss_rate::cpu0.inst     0.500000                       # mshr miss rate for overall accesses
system.l2.overall_mshr_miss_rate::cpu0.data     0.480142                       # mshr miss rate for overall accesses
system.l2.overall_mshr_miss_rate::total      0.480142                       # mshr miss rate for overall accesses
system.l2.ReadExReq_avg_mshr_miss_latency::cpu0.data 91006.465517                       # average ReadExReq mshr miss latency
system.l2.ReadExReq_avg_mshr_miss_latency::total 91006.465517                       # average ReadExReq mshr miss latency
system.l2.ReadCleanReq_avg_mshr_miss_latency::cpu0.inst        91000                       # average ReadCleanReq mshr miss latency
system.l2.ReadCleanReq_avg_mshr_miss_latency::total        91000                       # average ReadCleanReq mshr miss latency
system.l2.ReadSharedReq_avg_mshr_miss_latency::cpu0.data 85656.587732                       # average ReadSharedReq mshr miss latency
system.l2.ReadSharedReq_avg_mshr_miss_latency::total 85656.587732                       # average ReadSharedReq mshr miss latency
system.l2.demand_avg_mshr_miss_latency::cpu0.inst        91000                       # average overall mshr miss latency
system.l2.demand_avg_mshr_miss_latency::cpu0.data 85671.073440                       # average overall mshr miss latency
system.l2.demand_avg_mshr_miss_latency::total 85671.104536                       # average overall mshr miss latency
system.l2.overall_avg_mshr_miss_latency::cpu0.inst        91000                       # average overall mshr miss latency
system.l2.overall_avg_mshr_miss_latency::cpu0.data 85671.073440                       # average overall mshr miss latency
system.l2.overall_avg_mshr_miss_latency::total 85671.104536                       # average overall mshr miss latency
system.membus.snoop_filter.tot_requests        342730                       # Total number of requests made to the snoop filter.
system.membus.snoop_filter.hit_single_requests       171366                       # Number of requests hitting in the snoop filter with a single holder of the requested data.
system.membus.snoop_filter.hit_multi_requests            0                       # Number of requests hitting in the snoop filter with multiple (>1) holders of the requested data.
system.membus.snoop_filter.tot_snoops               0                       # Total number of snoops made to the snoop filter.
system.membus.snoop_filter.hit_single_snoops            0                       # Number of snoops hitting in the snoop filter with a single holder of the requested data.
system.membus.snoop_filter.hit_multi_snoops            0                       # Number of snoops hitting in the snoop filter with multiple (>1) holders of the requested data.
system.membus.pwrStateResidencyTicks::UNDEFINED  15267344125                       # Cumulative time (in ticks) in various power states
system.membus.trans_dist::ReadResp             170900                       # Transaction distribution
system.membus.trans_dist::WritebackDirty          601                       # Transaction distribution
system.membus.trans_dist::CleanEvict           170764                       # Transaction distribution
system.membus.trans_dist::ReadExReq               464                       # Transaction distribution
system.membus.trans_dist::ReadExResp              464                       # Transaction distribution
system.membus.trans_dist::ReadSharedReq        170901                       # Transaction distribution
system.membus.pkt_count_system.l2.mem_side::system.mem_ctrls.port       514094                       # Packet count per connected master and slave (bytes)
system.membus.pkt_count_system.l2.mem_side::total       514094                       # Packet count per connected master and slave (bytes)
system.membus.pkt_count::total                 514094                       # Packet count per connected master and slave (bytes)
system.membus.pkt_size_system.l2.mem_side::system.mem_ctrls.port     11005760                       # Cumulative packet size per connected master and slave (bytes)
system.membus.pkt_size_system.l2.mem_side::total     11005760                       # Cumulative packet size per connected master and slave (bytes)
system.membus.pkt_size::total                11005760                       # Cumulative packet size per connected master and slave (bytes)
system.membus.snoops                                0                       # Total snoops (count)
system.membus.snoopTraffic                          0                       # Total snoop traffic (bytes)
system.membus.snoop_fanout::samples            171365                       # Request fanout histogram
system.membus.snoop_fanout::mean                    0                       # Request fanout histogram
system.membus.snoop_fanout::stdev                   0                       # Request fanout histogram
system.membus.snoop_fanout::underflows              0      0.00%      0.00% # Request fanout histogram
system.membus.snoop_fanout::0                  171365    100.00%    100.00% # Request fanout histogram
system.membus.snoop_fanout::1                       0      0.00%    100.00% # Request fanout histogram
system.membus.snoop_fanout::overflows               0      0.00%    100.00% # Request fanout histogram
system.membus.snoop_fanout::min_value               0                       # Request fanout histogram
system.membus.snoop_fanout::max_value               0                       # Request fanout histogram
system.membus.snoop_fanout::total              171365                       # Request fanout histogram
system.membus.reqLayer8.occupancy           401855500                       # Layer occupancy (ticks)
system.membus.reqLayer8.utilization               2.6                       # Layer utilization (%)
system.membus.respLayer1.occupancy          931034000                       # Layer occupancy (ticks)
system.membus.respLayer1.utilization              6.1                       # Layer utilization (%)
system.tol2bus.snoop_filter.tot_requests       713813                       # Total number of requests made to the snoop filter.
system.tol2bus.snoop_filter.hit_single_requests       356906                       # Number of requests hitting in the snoop filter with a single holder of the requested data.
system.tol2bus.snoop_filter.hit_multi_requests          502                       # Number of requests hitting in the snoop filter with multiple (>1) holders of the requested data.
system.tol2bus.snoop_filter.tot_snoops              1                       # Total number of snoops made to the snoop filter.
system.tol2bus.snoop_filter.hit_single_snoops            1                       # Number of snoops hitting in the snoop filter with a single holder of the requested data.
system.tol2bus.snoop_filter.hit_multi_snoops            0                       # Number of snoops hitting in the snoop filter with multiple (>1) holders of the requested data.
system.tol2bus.pwrStateResidencyTicks::UNDEFINED  15267344125                       # Cumulative time (in ticks) in various power states
system.tol2bus.trans_dist::ReadResp            355457                       # Transaction distribution
system.tol2bus.trans_dist::WritebackDirty         4872                       # Transaction distribution
system.tol2bus.trans_dist::WritebackClean            2                       # Transaction distribution
system.tol2bus.trans_dist::CleanEvict          523398                       # Transaction distribution
system.tol2bus.trans_dist::ReadExReq             1449                       # Transaction distribution
system.tol2bus.trans_dist::ReadExResp            1449                       # Transaction distribution
system.tol2bus.trans_dist::ReadCleanReq             2                       # Transaction distribution
system.tol2bus.trans_dist::ReadSharedReq       355456                       # Transaction distribution
system.tol2bus.pkt_count_system.cpu0.icache.mem_side::system.l2.cpu_side            6                       # Packet count per connected master and slave (bytes)
system.tol2bus.pkt_count_system.cpu0.dcache.mem_side::system.l2.cpu_side      1070713                       # Packet count per connected master and slave (bytes)
system.tol2bus.pkt_count::total               1070719                       # Packet count per connected master and slave (bytes)
system.tol2bus.pkt_size_system.cpu0.icache.mem_side::system.l2.cpu_side          256                       # Cumulative packet size per connected master and slave (bytes)
system.tol2bus.pkt_size_system.cpu0.dcache.mem_side::system.l2.cpu_side     23115200                       # Cumulative packet size per connected master and slave (bytes)
system.tol2bus.pkt_size::total               23115456                       # Cumulative packet size per connected master and slave (bytes)
system.tol2bus.snoops                          171366                       # Total snoops (count)
system.tol2bus.snoopTraffic                     38464                       # Total snoop traffic (bytes)
system.tol2bus.snoop_fanout::samples           528273                       # Request fanout histogram
system.tol2bus.snoop_fanout::mean            0.000952                       # Request fanout histogram
system.tol2bus.snoop_fanout::stdev           0.030842                       # Request fanout histogram
system.tol2bus.snoop_fanout::underflows             0      0.00%      0.00% # Request fanout histogram
system.tol2bus.snoop_fanout::0                 527770     99.90%     99.90% # Request fanout histogram
system.tol2bus.snoop_fanout::1                    503      0.10%    100.00% # Request fanout histogram
system.tol2bus.snoop_fanout::2                      0      0.00%    100.00% # Request fanout histogram
system.tol2bus.snoop_fanout::3                      0      0.00%    100.00% # Request fanout histogram
system.tol2bus.snoop_fanout::4                      0      0.00%    100.00% # Request fanout histogram
system.tol2bus.snoop_fanout::5                      0      0.00%    100.00% # Request fanout histogram
system.tol2bus.snoop_fanout::6                      0      0.00%    100.00% # Request fanout histogram
system.tol2bus.snoop_fanout::7                      0      0.00%    100.00% # Request fanout histogram
system.tol2bus.snoop_fanout::8                      0      0.00%    100.00% # Request fanout histogram
system.tol2bus.snoop_fanout::9                      0      0.00%    100.00% # Request fanout histogram
system.tol2bus.snoop_fanout::10                     0      0.00%    100.00% # Request fanout histogram
system.tol2bus.snoop_fanout::11                     0      0.00%    100.00% # Request fanout histogram
system.tol2bus.snoop_fanout::12                     0      0.00%    100.00% # Request fanout histogram
system.tol2bus.snoop_fanout::13                     0      0.00%    100.00% # Request fanout histogram
system.tol2bus.snoop_fanout::14                     0      0.00%    100.00% # Request fanout histogram
system.tol2bus.snoop_fanout::15                     0      0.00%    100.00% # Request fanout histogram
system.tol2bus.snoop_fanout::16                     0      0.00%    100.00% # Request fanout histogram
system.tol2bus.snoop_fanout::overflows              0      0.00%    100.00% # Request fanout histogram
system.tol2bus.snoop_fanout::min_value              0                       # Request fanout histogram
system.tol2bus.snoop_fanout::max_value              1                       # Request fanout histogram
system.tol2bus.snoop_fanout::total             528273                       # Request fanout histogram
system.tol2bus.reqLayer0.occupancy          361179500                       # Layer occupancy (ticks)
system.tol2bus.reqLayer0.utilization              2.4                       # Layer utilization (%)
system.tol2bus.respLayer0.occupancy              3000                       # Layer occupancy (ticks)
system.tol2bus.respLayer0.utilization             0.0                       # Layer utilization (%)
system.tol2bus.respLayer1.occupancy         535356000                       # Layer occupancy (ticks)
system.tol2bus.respLayer1.utilization             3.5                       # Layer utilization (%)

---------- End Simulation Statistics   ----------
