
---------- Begin Simulation Statistics ----------
sim_seconds                                  0.015267                       # Number of seconds simulated
sim_ticks                                 15267344125                       # Number of ticks simulated
final_tick                               8168029106875                       # Number of ticks from beginning of simulation (restored from checkpoints and never reset)
sim_freq                                 1000000000000                       # Frequency of simulated ticks
host_inst_rate                               73963372                       # Simulator instruction rate (inst/s)
host_op_rate                                138495826                       # Simulator op (including micro ops) rate (op/s)
host_tick_rate                              177408692                       # Simulator tick rate (ticks/s)
host_mem_usage                                2332640                       # Number of bytes of host memory used
host_seconds                                    86.06                       # Real time elapsed on the host
sim_insts                                  6365099625                       # Number of instructions simulated
sim_ops                                   11918599840                       # Number of ops (including micro ops) simulated
system.voltage_domain.voltage                       1                       # Voltage in Volts
system.clk_domain.clock                          1000                       # Clock period in ticks
system.mem_ctrls.pwrStateResidencyTicks::UNDEFINED  15267344125                       # Cumulative time (in ticks) in various power states
system.mem_ctrls.bytes_read::cpu0.inst           1856                       # Number of bytes read from this memory
system.mem_ctrls.bytes_read::cpu0.data       21754816                       # Number of bytes read from this memory
system.mem_ctrls.bytes_read::total           21756672                       # Number of bytes read from this memory
system.mem_ctrls.bytes_inst_read::cpu0.inst         1856                       # Number of instructions bytes read from this memory
system.mem_ctrls.bytes_inst_read::total          1856                       # Number of instructions bytes read from this memory
system.mem_ctrls.bytes_written::writebacks     17804992                       # Number of bytes written to this memory
system.mem_ctrls.bytes_written::total        17804992                       # Number of bytes written to this memory
system.mem_ctrls.num_reads::cpu0.inst              29                       # Number of read requests responded to by this memory
system.mem_ctrls.num_reads::cpu0.data          339919                       # Number of read requests responded to by this memory
system.mem_ctrls.num_reads::total              339948                       # Number of read requests responded to by this memory
system.mem_ctrls.num_writes::writebacks        278203                       # Number of write requests responded to by this memory
system.mem_ctrls.num_writes::total             278203                       # Number of write requests responded to by this memory
system.mem_ctrls.bw_read::cpu0.inst            121567                       # Total read bandwidth from this memory (bytes/s)
system.mem_ctrls.bw_read::cpu0.data        1424924717                       # Total read bandwidth from this memory (bytes/s)
system.mem_ctrls.bw_read::total            1425046283                       # Total read bandwidth from this memory (bytes/s)
system.mem_ctrls.bw_inst_read::cpu0.inst       121567                       # Instruction read bandwidth from this memory (bytes/s)
system.mem_ctrls.bw_inst_read::total           121567                       # Instruction read bandwidth from this memory (bytes/s)
system.mem_ctrls.bw_write::writebacks      1166214101                       # Write bandwidth from this memory (bytes/s)
system.mem_ctrls.bw_write::total           1166214101                       # Write bandwidth from this memory (bytes/s)
system.mem_ctrls.bw_total::writebacks      1166214101                       # Total bandwidth to/from this memory (bytes/s)
system.mem_ctrls.bw_total::cpu0.inst           121567                       # Total bandwidth to/from this memory (bytes/s)
system.mem_ctrls.bw_total::cpu0.data       1424924717                       # Total bandwidth to/from this memory (bytes/s)
system.mem_ctrls.bw_total::total           2591260384                       # Total bandwidth to/from this memory (bytes/s)
system.mem_ctrls.readReqs                      339945                       # Number of read requests accepted
system.mem_ctrls.writeReqs                     278203                       # Number of write requests accepted
system.mem_ctrls.readBursts                    339945                       # Number of DRAM read bursts, including those serviced by the write queue
system.mem_ctrls.writeBursts                   278203                       # Number of DRAM write bursts, including those merged in the write queue
system.mem_ctrls.bytesReadDRAM               21754496                       # Total number of bytes read from DRAM
system.mem_ctrls.bytesReadWrQ                    2176                       # Total number of bytes read from write queue
system.mem_ctrls.bytesWritten                17804992                       # Total number of bytes written to DRAM
system.mem_ctrls.bytesReadSys                21756480                       # Total read bytes from the system interface side
system.mem_ctrls.bytesWrittenSys             17804992                       # Total written bytes from the system interface side
system.mem_ctrls.servicedByWrQ                     34                       # Number of DRAM read bursts serviced by the write queue
system.mem_ctrls.mergedWrBursts                     0                       # Number of DRAM write bursts merged with an existing one
system.mem_ctrls.neitherReadNorWriteReqs            0                       # Number of requests that are neither read nor write
system.mem_ctrls.perBankRdBursts::0             21299                       # Per bank write bursts
system.mem_ctrls.perBankRdBursts::1             21259                       # Per bank write bursts
system.mem_ctrls.perBankRdBursts::2             21314                       # Per bank write bursts
system.mem_ctrls.perBankRdBursts::3             20975                       # Per bank write bursts
system.mem_ctrls.perBankRdBursts::4             20970                       # Per bank write bursts
system.mem_ctrls.perBankRdBursts::5             21106                       # Per bank write bursts
system.mem_ctrls.perBankRdBursts::6             21510                       # Per bank write bursts
system.mem_ctrls.perBankRdBursts::7             21011                       # Per bank write bursts
system.mem_ctrls.perBankRdBursts::8             20752                       # Per bank write bursts
system.mem_ctrls.perBankRdBursts::9             21344                       # Per bank write bursts
system.mem_ctrls.perBankRdBursts::10            21258                       # Per bank write bursts
system.mem_ctrls.perBankRdBursts::11            21202                       # Per bank write bursts
system.mem_ctrls.perBankRdBursts::12            21381                       # Per bank write bursts
system.mem_ctrls.perBankRdBursts::13            21654                       # Per bank write bursts
system.mem_ctrls.perBankRdBursts::14            21312                       # Per bank write bursts
system.mem_ctrls.perBankRdBursts::15            21567                       # Per bank write bursts
system.mem_ctrls.perBankWrBursts::0             17483                       # Per bank write bursts
system.mem_ctrls.perBankWrBursts::1             17361                       # Per bank write bursts
system.mem_ctrls.perBankWrBursts::2             17477                       # Per bank write bursts
system.mem_ctrls.perBankWrBursts::3             17185                       # Per bank write bursts
system.mem_ctrls.perBankWrBursts::4             17109                       # Per bank write bursts
system.mem_ctrls.perBankWrBursts::5             17293                       # Per bank write bursts
system.mem_ctrls.perBankWrBursts::6             17652                       # Per bank write bursts
system.mem_ctrls.perBankWrBursts::7             17166                       # Per bank write bursts
system.mem_ctrls.perBankWrBursts::8             16910                       # Per bank write bursts
system.mem_ctrls.perBankWrBursts::9             17517                       # Per bank write bursts
system.mem_ctrls.perBankWrBursts::10            17451                       # Per bank write bursts
system.mem_ctrls.perBankWrBursts::11            17298                       # Per bank write bursts
system.mem_ctrls.perBankWrBursts::12            17448                       # Per bank write bursts
system.mem_ctrls.perBankWrBursts::13            17706                       # Per bank write bursts
system.mem_ctrls.perBankWrBursts::14            17420                       # Per bank write bursts
system.mem_ctrls.perBankWrBursts::15            17727                       # Per bank write bursts
system.mem_ctrls.numRdRetry                         0                       # Number of times read queue was full causing retry
system.mem_ctrls.numWrRetry                         0                       # Number of times write queue was full causing retry
system.mem_ctrls.totGap                   15267330500                       # Total gap between requests
system.mem_ctrls.readPktSize::0                     0                       # Read request sizes (log2)
system.mem_ctrls.readPktSize::1                     0                       # Read request sizes (log2)
system.mem_ctrls.readPktSize::2                     0                       # Read request sizes (log2)
system.mem_ctrls.readPktSize::3                     0                       # Read request sizes (log2)
system.mem_ctrls.readPktSize::4                     0                       # Read request sizes (log2)
system.mem_ctrls.readPktSize::5                     0                       # Read request sizes (log2)
system.mem_ctrls.readPktSize::6                339945                       # Read request sizes (log2)
system.mem_ctrls.writePktSize::0                    0                       # Write request sizes (log2)
system.mem_ctrls.writePktSize::1                    0                       # Write request sizes (log2)
system.mem_ctrls.writePktSize::2                    0                       # Write request sizes (log2)
system.mem_ctrls.writePktSize::3                    0                       # Write request sizes (log2)
system.mem_ctrls.writePktSize::4                    0                       # Write request sizes (log2)
system.mem_ctrls.writePktSize::5                    0                       # Write request sizes (log2)
system.mem_ctrls.writePktSize::6               278203                       # Write request sizes (log2)
system.mem_ctrls.rdQLenPdf::0                  136896                       # What read queue length does an incoming req see
system.mem_ctrls.rdQLenPdf::1                  108314                       # What read queue length does an incoming req see
system.mem_ctrls.rdQLenPdf::2                   68107                       # What read queue length does an incoming req see
system.mem_ctrls.rdQLenPdf::3                   26593                       # What read queue length does an incoming req see
system.mem_ctrls.rdQLenPdf::4                       1                       # What read queue length does an incoming req see
system.mem_ctrls.rdQLenPdf::5                       0                       # What read queue length does an incoming req see
system.mem_ctrls.rdQLenPdf::6                       0                       # What read queue length does an incoming req see
system.mem_ctrls.rdQLenPdf::7                       0                       # What read queue length does an incoming req see
system.mem_ctrls.rdQLenPdf::8                       0                       # What read queue length does an incoming req see
system.mem_ctrls.rdQLenPdf::9                       0                       # What read queue length does an incoming req see
system.mem_ctrls.rdQLenPdf::10                      0                       # What read queue length does an incoming req see
system.mem_ctrls.rdQLenPdf::11                      0                       # What read queue length does an incoming req see
system.mem_ctrls.rdQLenPdf::12                      0                       # What read queue length does an incoming req see
system.mem_ctrls.rdQLenPdf::13                      0                       # What read queue length does an incoming req see
system.mem_ctrls.rdQLenPdf::14                      0                       # What read queue length does an incoming req see
system.mem_ctrls.rdQLenPdf::15                      0                       # What read queue length does an incoming req see
system.mem_ctrls.rdQLenPdf::16                      0                       # What read queue length does an incoming req see
system.mem_ctrls.rdQLenPdf::17                      0                       # What read queue length does an incoming req see
system.mem_ctrls.rdQLenPdf::18                      0                       # What read queue length does an incoming req see
system.mem_ctrls.rdQLenPdf::19                      0                       # What read queue length does an incoming req see
system.mem_ctrls.rdQLenPdf::20                      0                       # What read queue length does an incoming req see
system.mem_ctrls.rdQLenPdf::21                      0                       # What read queue length does an incoming req see
system.mem_ctrls.rdQLenPdf::22                      0                       # What read queue length does an incoming req see
system.mem_ctrls.rdQLenPdf::23                      0                       # What read queue length does an incoming req see
system.mem_ctrls.rdQLenPdf::24                      0                       # What read queue length does an incoming req see
system.mem_ctrls.rdQLenPdf::25                      0                       # What read queue length does an incoming req see
system.mem_ctrls.rdQLenPdf::26                      0                       # What read queue length does an incoming req see
system.mem_ctrls.rdQLenPdf::27                      0                       # What read queue length does an incoming req see
system.mem_ctrls.rdQLenPdf::28                      0                       # What read queue length does an incoming req see
system.mem_ctrls.rdQLenPdf::29                      0                       # What read queue length does an incoming req see
system.mem_ctrls.rdQLenPdf::30                      0                       # What read queue length does an incoming req see
system.mem_ctrls.rdQLenPdf::31                      0                       # What read queue length does an incoming req see
system.mem_ctrls.wrQLenPdf::0                       0                       # What write queue length does an incoming req see
system.mem_ctrls.wrQLenPdf::1                       0                       # What write queue length does an incoming req see
system.mem_ctrls.wrQLenPdf::2                       0                       # What write queue length does an incoming req see
system.mem_ctrls.wrQLenPdf::3                       0                       # What write queue length does an incoming req see
system.mem_ctrls.wrQLenPdf::4                       0                       # What write queue length does an incoming req see
system.mem_ctrls.wrQLenPdf::5                       0                       # What write queue length does an incoming req see
system.mem_ctrls.wrQLenPdf::6                       0                       # What write queue length does an incoming req see
system.mem_ctrls.wrQLenPdf::7                       0                       # What write queue length does an incoming req see
system.mem_ctrls.wrQLenPdf::8                       0                       # What write queue length does an incoming req see
system.mem_ctrls.wrQLenPdf::9                       0                       # What write queue length does an incoming req see
system.mem_ctrls.wrQLenPdf::10                      0                       # What write queue length does an incoming req see
system.mem_ctrls.wrQLenPdf::11                      0                       # What write queue length does an incoming req see
system.mem_ctrls.wrQLenPdf::12                      0                       # What write queue length does an incoming req see
system.mem_ctrls.wrQLenPdf::13                      0                       # What write queue length does an incoming req see
system.mem_ctrls.wrQLenPdf::14                      0                       # What write queue length does an incoming req see
system.mem_ctrls.wrQLenPdf::15                    108                       # What write queue length does an incoming req see
system.mem_ctrls.wrQLenPdf::16                    151                       # What write queue length does an incoming req see
system.mem_ctrls.wrQLenPdf::17                   5374                       # What write queue length does an incoming req see
system.mem_ctrls.wrQLenPdf::18                  11442                       # What write queue length does an incoming req see
system.mem_ctrls.wrQLenPdf::19                  15718                       # What write queue length does an incoming req see
system.mem_ctrls.wrQLenPdf::20                  17637                       # What write queue length does an incoming req see
system.mem_ctrls.wrQLenPdf::21                  18011                       # What write queue length does an incoming req see
system.mem_ctrls.wrQLenPdf::22                  18312                       # What write queue length does an incoming req see
system.mem_ctrls.wrQLenPdf::23                  18399                       # What write queue length does an incoming req see
system.mem_ctrls.wrQLenPdf::24                  18427                       # What write queue length does an incoming req see
system.mem_ctrls.wrQLenPdf::25                  18467                       # What write queue length does an incoming req see
system.mem_ctrls.wrQLenPdf::26                  18646                       # What write queue length does an incoming req see
system.mem_ctrls.wrQLenPdf::27                  18707                       # What write queue length does an incoming req see
system.mem_ctrls.wrQLenPdf::28                  18739                       # What write queue length does an incoming req see
system.mem_ctrls.wrQLenPdf::29                  20046                       # What write queue length does an incoming req see
system.mem_ctrls.wrQLenPdf::30                  23983                       # What write queue length does an incoming req see
system.mem_ctrls.wrQLenPdf::31                  18273                       # What write queue length does an incoming req see
system.mem_ctrls.wrQLenPdf::32                  17535                       # What write queue length does an incoming req see
system.mem_ctrls.wrQLenPdf::33                    150                       # What write queue length does an incoming req see
system.mem_ctrls.wrQLenPdf::34                     49                       # What write queue length does an incoming req see
system.mem_ctrls.wrQLenPdf::35                     20                       # What write queue length does an incoming req see
system.mem_ctrls.wrQLenPdf::36                      7                       # What write queue length does an incoming req see
system.mem_ctrls.wrQLenPdf::37                      2                       # What write queue length does an incoming req see
system.mem_ctrls.wrQLenPdf::38                      0                       # What write queue length does an incoming req see
system.mem_ctrls.wrQLenPdf::39                      0                       # What write queue length does an incoming req see
system.mem_ctrls.wrQLenPdf::40                      0                       # What write queue length does an incoming req see
system.mem_ctrls.wrQLenPdf::41                      0                       # What write queue length does an incoming req see
system.mem_ctrls.wrQLenPdf::42                      0                       # What write queue length does an incoming req see
system.mem_ctrls.wrQLenPdf::43                      0                       # What write queue length does an incoming req see
system.mem_ctrls.wrQLenPdf::44                      0                       # What write queue length does an incoming req see
system.mem_ctrls.wrQLenPdf::45                      0                       # What write queue length does an incoming req see
system.mem_ctrls.wrQLenPdf::46                      0                       # What write queue length does an incoming req see
system.mem_ctrls.wrQLenPdf::47                      0                       # What write queue length does an incoming req see
system.mem_ctrls.wrQLenPdf::48                      0                       # What write queue length does an incoming req see
system.mem_ctrls.wrQLenPdf::49                      0                       # What write queue length does an incoming req see
system.mem_ctrls.wrQLenPdf::50                      0                       # What write queue length does an incoming req see
system.mem_ctrls.wrQLenPdf::51                      0                       # What write queue length does an incoming req see
system.mem_ctrls.wrQLenPdf::52                      0                       # What write queue length does an incoming req see
system.mem_ctrls.wrQLenPdf::53                      0                       # What write queue length does an incoming req see
system.mem_ctrls.wrQLenPdf::54                      0                       # What write queue length does an incoming req see
system.mem_ctrls.wrQLenPdf::55                      0                       # What write queue length does an incoming req see
system.mem_ctrls.wrQLenPdf::56                      0                       # What write queue length does an incoming req see
system.mem_ctrls.wrQLenPdf::57                      0                       # What write queue length does an incoming req see
system.mem_ctrls.wrQLenPdf::58                      0                       # What write queue length does an incoming req see
system.mem_ctrls.wrQLenPdf::59                      0                       # What write queue length does an incoming req see
system.mem_ctrls.wrQLenPdf::60                      0                       # What write queue length does an incoming req see
system.mem_ctrls.wrQLenPdf::61                      0                       # What write queue length does an incoming req see
system.mem_ctrls.wrQLenPdf::62                      0                       # What write queue length does an incoming req see
system.mem_ctrls.wrQLenPdf::63                      0                       # What write queue length does an incoming req see
system.mem_ctrls.bytesPerActivate::samples       363855                       # Bytes accessed per row activation
system.mem_ctrls.bytesPerActivate::mean    108.721287                       # Bytes accessed per row activation
system.mem_ctrls.bytesPerActivate::gmean    85.250331                       # Bytes accessed per row activation
system.mem_ctrls.bytesPerActivate::stdev   112.928450                       # Bytes accessed per row activation
system.mem_ctrls.bytesPerActivate::0-127       278185     76.45%     76.45% # Bytes accessed per row activation
system.mem_ctrls.bytesPerActivate::128-255        48808     13.41%     89.87% # Bytes accessed per row activation
system.mem_ctrls.bytesPerActivate::256-383        19176      5.27%     95.14% # Bytes accessed per row activation
system.mem_ctrls.bytesPerActivate::384-511         9347      2.57%     97.71% # Bytes accessed per row activation
system.mem_ctrls.bytesPerActivate::512-639         4530      1.25%     98.95% # Bytes accessed per row activation
system.mem_ctrls.bytesPerActivate::640-767         2107      0.58%     99.53% # Bytes accessed per row activation
system.mem_ctrls.bytesPerActivate::768-895          950      0.26%     99.79% # Bytes accessed per row activation
system.mem_ctrls.bytesPerActivate::896-1023          388      0.11%     99.90% # Bytes accessed per row activation
system.mem_ctrls.bytesPerActivate::1024-1151          364      0.10%    100.00% # Bytes accessed per row activation
system.mem_ctrls.bytesPerActivate::total       363855                       # Bytes accessed per row activation
system.mem_ctrls.rdPerTurnAround::samples        17355                       # Reads before turning the bus around for writes
system.mem_ctrls.rdPerTurnAround::mean      19.584788                       # Reads before turning the bus around for writes
system.mem_ctrls.rdPerTurnAround::gmean     19.366735                       # Reads before turning the bus around for writes
system.mem_ctrls.rdPerTurnAround::stdev      3.002170                       # Reads before turning the bus around for writes
system.mem_ctrls.rdPerTurnAround::12-13            56      0.32%      0.32% # Reads before turning the bus around for writes
system.mem_ctrls.rdPerTurnAround::14-15           873      5.03%      5.35% # Reads before turning the bus around for writes
system.mem_ctrls.rdPerTurnAround::16-17          3370     19.42%     24.77% # Reads before turning the bus around for writes
system.mem_ctrls.rdPerTurnAround::18-19          5170     29.79%     54.56% # Reads before turning the bus around for writes
system.mem_ctrls.rdPerTurnAround::20-21          3956     22.79%     77.36% # Reads before turning the bus around for writes
system.mem_ctrls.rdPerTurnAround::22-23          2191     12.62%     89.98% # Reads before turning the bus around for writes
system.mem_ctrls.rdPerTurnAround::24-25          1014      5.84%     95.82% # Reads before turning the bus around for writes
system.mem_ctrls.rdPerTurnAround::26-27           444      2.56%     98.38% # Reads before turning the bus around for writes
system.mem_ctrls.rdPerTurnAround::28-29           175      1.01%     99.39% # Reads before turning the bus around for writes
system.mem_ctrls.rdPerTurnAround::30-31            68      0.39%     99.78% # Reads before turning the bus around for writes
system.mem_ctrls.rdPerTurnAround::32-33            22      0.13%     99.91% # Reads before turning the bus around for writes
system.mem_ctrls.rdPerTurnAround::34-35            11      0.06%     99.97% # Reads before turning the bus around for writes
system.mem_ctrls.rdPerTurnAround::36-37             5      0.03%    100.00% # Reads before turning the bus around for writes
system.mem_ctrls.rdPerTurnAround::total         17355                       # Reads before turning the bus around for writes
system.mem_ctrls.wrPerTurnAround::samples        17356                       # Writes before turning the bus around for reads
system.mem_ctrls.wrPerTurnAround::mean      16.029385                       # Writes before turning the bus around for reads
system.mem_ctrls.wrPerTurnAround::gmean     16.027489                       # Writes before turning the bus around for reads
system.mem_ctrls.wrPerTurnAround::stdev      0.259536                       # Writes before turning the bus around for reads
system.mem_ctrls.wrPerTurnAround::16            17088     98.46%     98.46% # Writes before turning the bus around for reads
system.mem_ctrls.wrPerTurnAround::17              100      0.58%     99.03% # Writes before turning the bus around for reads
system.mem_ctrls.wrPerTurnAround::18              113      0.65%     99.68% # Writes before turning the bus around for reads
system.mem_ctrls.wrPerTurnAround::19               38      0.22%     99.90% # Writes before turning the bus around for reads
system.mem_ctrls.wrPerTurnAround::20               15      0.09%     99.99% # Writes before turning the bus around for reads
system.mem_ctrls.wrPerTurnAround::21                2      0.01%    100.00% # Writes before turning the bus around for reads
system.mem_ctrls.wrPerTurnAround::total         17356                       # Writes before turning the bus around for reads
system.mem_ctrls.totQLat                  12125650500                       # Total ticks spent queuing
system.mem_ctrls.totMemAccLat             18499038000                       # Total ticks spent from burst creation until serviced by the DRAM
system.mem_ctrls.totBusLat                 1699570000                       # Total ticks spent in databus transfers
system.mem_ctrls.avgQLat                     35673.02                       # Average queueing delay per DRAM burst
system.mem_ctrls.avgBusLat                    5000.04                       # Average bus latency per DRAM burst
system.mem_ctrls.avgMemAccLat                54423.18                       # Average memory access latency per DRAM burst
system.mem_ctrls.avgRdBW                      1424.90                       # Average DRAM read bandwidth in MiByte/s
system.mem_ctrls.avgWrBW                      1166.21                       # Average achieved write bandwidth in MiByte/s
system.mem_ctrls.avgRdBWSys                   1425.03                       # Average system read bandwidth in MiByte/s
system.mem_ctrls.avgWrBWSys                   1166.21                       # Average system write bandwidth in MiByte/s
system.mem_ctrls.peakBW                      12800.00                       # Theoretical peak bandwidth in MiByte/s
system.mem_ctrls.busUtil                        20.24                       # Data bus utilization in percentage
system.mem_ctrls.busUtilRead                    11.13                       # Data bus utilization in percentage for reads
system.mem_ctrls.busUtilWrite                    9.11                       # Data bus utilization in percentage for writes
system.mem_ctrls.avgRdQLen                       2.33                       # Average read queue length when enqueuing
system.mem_ctrls.avgWrQLen                      26.85                       # Average write queue length when enqueuing
system.mem_ctrls.readRowHits                   232538                       # Number of row buffer hits during reads
system.mem_ctrls.writeRowHits                   21728                       # Number of row buffer hits during writes
system.mem_ctrls.readRowHitRate                 68.41                       # Row buffer hit rate for reads
system.mem_ctrls.writeRowHitRate                 7.81                       # Row buffer hit rate for writes
system.mem_ctrls.avgGap                      24698.50                       # Average gap between requests
system.mem_ctrls.pageHitRate                    41.14                       # Row buffer hit rate, read and write combined
system.mem_ctrls_0.actEnergy               1296888180                       # Energy for activate commands per rank (pJ)
system.mem_ctrls_0.preEnergy                689308620                       # Energy for precharge commands per rank (pJ)
system.mem_ctrls_0.readEnergy              1209830160                       # Energy for read commands per rank (pJ)
system.mem_ctrls_0.writeEnergy              724149720                       # Energy for write commands per rank (pJ)
system.mem_ctrls_0.refreshEnergy         1180108800.000000                       # Energy for refresh commands per rank (pJ)
system.mem_ctrls_0.actBackEnergy           3950107410                       # Energy for active background per rank (pJ)
system.mem_ctrls_0.preBackEnergy             37683840                       # Energy for precharge background per rank (pJ)
system.mem_ctrls_0.actPowerDownEnergy      2685834870                       # Energy for active power-down per rank (pJ)
system.mem_ctrls_0.prePowerDownEnergy        85373760                       # Energy for precharge power-down per rank (pJ)
system.mem_ctrls_0.selfRefreshEnergy        100711740                       # Energy for self refresh per rank (pJ)
system.mem_ctrls_0.totalEnergy            11959997100                       # Total energy per rank (pJ)
system.mem_ctrls_0.averagePower            783.371161                       # Core power per rank (mW)
system.mem_ctrls_0.totalIdleTime           6506329500                       # Total Idle time Per DRAM Rank
system.mem_ctrls_0.memoryStateTime::IDLE     12459750                       # Time in different power states
system.mem_ctrls_0.memoryStateTime::REF     499346750                       # Time in different power states
system.mem_ctrls_0.memoryStateTime::SREF    394321500                       # Time in different power states
system.mem_ctrls_0.memoryStateTime::PRE_PDN    222470750                       # Time in different power states
system.mem_ctrls_0.memoryStateTime::ACT    8249151500                       # Time in different power states
system.mem_ctrls_0.memoryStateTime::ACT_PDN   5889593875                       # Time in different power states
system.mem_ctrls_1.actEnergy               1301022240                       # Energy for activate commands per rank (pJ)
system.mem_ctrls_1.preEnergy                691528695                       # Energy for precharge commands per rank (pJ)
system.mem_ctrls_1.readEnergy              1217155800                       # Energy for read commands per rank (pJ)
system.mem_ctrls_1.writeEnergy              728085600                       # Energy for write commands per rank (pJ)
system.mem_ctrls_1.refreshEnergy         1173347760.000000                       # Energy for refresh commands per rank (pJ)
system.mem_ctrls_1.actBackEnergy           3936629760                       # Energy for active background per rank (pJ)
system.mem_ctrls_1.preBackEnergy             34052640                       # Energy for precharge background per rank (pJ)
system.mem_ctrls_1.actPowerDownEnergy      2664105900                       # Energy for active power-down per rank (pJ)
system.mem_ctrls_1.prePowerDownEnergy        82850400                       # Energy for precharge power-down per rank (pJ)
system.mem_ctrls_1.selfRefreshEnergy        123653580                       # Energy for self refresh per rank (pJ)
system.mem_ctrls_1.totalEnergy            11952432375                       # Total energy per rank (pJ)
system.mem_ctrls_1.averagePower            782.875677                       # Core power per rank (mW)
system.mem_ctrls_1.totalIdleTime           6545815250                       # Total Idle time Per DRAM Rank
system.mem_ctrls_1.memoryStateTime::IDLE     12297250                       # Time in different power states
system.mem_ctrls_1.memoryStateTime::REF     496412000                       # Time in different power states
system.mem_ctrls_1.memoryStateTime::SREF    487608750                       # Time in different power states
system.mem_ctrls_1.memoryStateTime::PRE_PDN    215723750                       # Time in different power states
system.mem_ctrls_1.memoryStateTime::ACT    8212664000                       # Time in different power states
system.mem_ctrls_1.memoryStateTime::ACT_PDN   5842638375                       # Time in different power states
system.pwrStateResidencyTicks::UNDEFINED  15267344125                       # Cumulative time (in ticks) in various power states
system.cpu0.branchPred.lookups                2171753                       # Number of BP lookups
system.cpu0.branchPred.condPredicted          2171753                       # Number of conditional branches predicted
system.cpu0.branchPred.condIncorrect            36222                       # Number of conditional branches incorrect
system.cpu0.branchPred.BTBLookups             1804700                       # Number of BTB lookups
system.cpu0.branchPred.BTBHits                      0                       # Number of BTB hits
system.cpu0.branchPred.BTBCorrect                   0                       # Number of correct BTB predictions (this stat may not work properly.
system.cpu0.branchPred.BTBHitPct             0.000000                       # BTB Hit Percentage
system.cpu0.branchPred.usedRAS                  41545                       # Number of times the RAS was used to get a target.
system.cpu0.branchPred.RASInCorrect               126                       # Number of incorrect RAS predictions.
system.cpu0.branchPred.indirectLookups        1804700                       # Number of indirect predictor lookups.
system.cpu0.branchPred.indirectHits            646299                       # Number of indirect target hits.
system.cpu0.branchPred.indirectMisses         1158401                       # Number of indirect misses.
system.cpu0.branchPredindirectMispredicted         3736                       # Number of mispredicted indirect branches.
system.cpu_voltage_domain.voltage                   1                       # Voltage in Volts
system.cpu_clk_domain.clock                       500                       # Clock period in ticks
system.cpu0.dtb.walker.pwrStateResidencyTicks::UNDEFINED  15267344125                       # Cumulative time (in ticks) in various power states
system.cpu0.dtb.rdAccesses                    3887643                       # TLB accesses on read requests
system.cpu0.dtb.wrAccesses                    1515732                       # TLB accesses on write requests
system.cpu0.dtb.rdMisses                       166001                       # TLB misses on read requests
system.cpu0.dtb.wrMisses                          158                       # TLB misses on write requests
system.cpu0.apic_clk_domain.clock                8000                       # Clock period in ticks
system.cpu0.interrupts.pwrStateResidencyTicks::UNDEFINED  15267344125                       # Cumulative time (in ticks) in various power states
system.cpu0.itb.walker.pwrStateResidencyTicks::UNDEFINED  15267344125                       # Cumulative time (in ticks) in various power states
system.cpu0.itb.rdAccesses                          0                       # TLB accesses on read requests
system.cpu0.itb.wrAccesses                    1073330                       # TLB accesses on write requests
system.cpu0.itb.rdMisses                            0                       # TLB misses on read requests
system.cpu0.itb.wrMisses                            6                       # TLB misses on write requests
system.cpu0.workload.numSyscalls                    0                       # Number of system calls
system.cpu0.pwrStateResidencyTicks::ON    15267344125                       # Cumulative time (in ticks) in various power states
system.cpu0.numCycles                        30534688                       # number of cpu cycles simulated
system.cpu0.numWorkItemsStarted                     0                       # number of work items this cpu started
system.cpu0.numWorkItemsCompleted                   0                       # number of work items this cpu completed
system.cpu0.fetch.icacheStallCycles           1098884                       # Number of cycles fetch is stalled on an Icache miss
system.cpu0.fetch.Insts                       9825068                       # Number of instructions fetch has processed
system.cpu0.fetch.Branches                    2171753                       # Number of branches that fetch encountered
system.cpu0.fetch.predictedBranches            687844                       # Number of branches that fetch has predicted taken
system.cpu0.fetch.Cycles                     29395782                       # Number of cycles fetch has run and was not squashing or blocked
system.cpu0.fetch.SquashCycles                  72628                       # Number of cycles fetch has spent squashing
system.cpu0.fetch.MiscStallCycles                   1                       # Number of cycles fetch has spent waiting on interrupts, or bad addresses, or out of MSHRs
system.cpu0.fetch.PendingTrapStallCycles           12                       # Number of stall cycles due to pending traps
system.cpu0.fetch.PendingQuiesceStallCycles           62                       # Number of stall cycles due to pending quiesce instructions
system.cpu0.fetch.CacheLines                  1073328                       # Number of cache lines fetched
system.cpu0.fetch.IcacheSquashes                 7795                       # Number of outstanding Icache misses that were squashed
system.cpu0.fetch.rateDist::samples          30531055                       # Number of instructions fetched each cycle (Total)
system.cpu0.fetch.rateDist::mean             0.592294                       # Number of instructions fetched each cycle (Total)
system.cpu0.fetch.rateDist::stdev            1.940661                       # Number of instructions fetched each cycle (Total)
system.cpu0.fetch.rateDist::underflows              0      0.00%      0.00% # Number of instructions fetched each cycle (Total)
system.cpu0.fetch.rateDist::0                27529381     90.17%     90.17% # Number of instructions fetched each cycle (Total)
system.cpu0.fetch.rateDist::1                  167093      0.55%     90.72% # Number of instructions fetched each cycle (Total)
system.cpu0.fetch.rateDist::2                  144934      0.47%     91.19% # Number of instructions fetched each cycle (Total)
system.cpu0.fetch.rateDist::3                  291668      0.96%     92.15% # Number of instructions fetched each cycle (Total)
system.cpu0.fetch.rateDist::4                  295617      0.97%     93.11% # Number of instructions fetched each cycle (Total)
system.cpu0.fetch.rateDist::5                  217496      0.71%     93.83% # Number of instructions fetched each cycle (Total)
system.cpu0.fetch.rateDist::6                  243579      0.80%     94.62% # Number of instructions fetched each cycle (Total)
system.cpu0.fetch.rateDist::7                  110313      0.36%     94.99% # Number of instructions fetched each cycle (Total)
system.cpu0.fetch.rateDist::8                 1530974      5.01%    100.00% # Number of instructions fetched each cycle (Total)
system.cpu0.fetch.rateDist::overflows               0      0.00%    100.00% # Number of instructions fetched each cycle (Total)
system.cpu0.fetch.rateDist::min_value               0                       # Number of instructions fetched each cycle (Total)
system.cpu0.fetch.rateDist::max_value               8                       # Number of instructions fetched each cycle (Total)
system.cpu0.fetch.rateDist::total            30531055                       # Number of instructions fetched each cycle (Total)
system.cpu0.fetch.branchRate                 0.071124                       # Number of branch fetches per cycle
system.cpu0.fetch.rate                       0.321767                       # Number of inst fetches per cycle
system.cpu0.decode.IdleCycles                  665632                       # Number of cycles decode is idle
system.cpu0.decode.BlockedCycles             27509631                       # Number of cycles decode is blocked
system.cpu0.decode.RunCycles                  1437777                       # Number of cycles decode is running
system.cpu0.decode.UnblockCycles               881701                       # Number of cycles decode is unblocking
system.cpu0.decode.SquashCycles                 36314                       # Number of cycles decode is squashing
system.cpu0.decode.DecodedInsts              17293691                       # Number of instructions handled by decode
system.cpu0.rename.SquashCycles                 36314                       # Number of cycles rename is squashing
system.cpu0.rename.IdleCycles                 1005700                       # Number of cycles rename is idle
system.cpu0.rename.BlockCycles               19115495                       # Number of cycles rename is blocking
system.cpu0.rename.serializeStallCycles         23545                       # count of cycles rename stalled for serializing inst
system.cpu0.rename.RunCycles                  1897051                       # Number of cycles rename is running
system.cpu0.rename.UnblockCycles              8452950                       # Number of cycles rename is unblocking
system.cpu0.rename.RenamedInsts              17095341                       # Number of instructions processed by rename
system.cpu0.rename.ROBFullEvents               218456                       # Number of times rename has blocked due to ROB full
system.cpu0.rename.IQFullEvents               2395363                       # Number of times rename has blocked due to IQ full
system.cpu0.rename.LQFullEvents               6769000                       # Number of times rename has blocked due to LQ full
system.cpu0.rename.SQFullEvents                 50736                       # Number of times rename has blocked due to SQ full
system.cpu0.rename.RenamedOperands           19791467                       # Number of destination operands rename has renamed
system.cpu0.rename.RenameLookups             45755139                       # Number of register rename lookups that rename has made
system.cpu0.rename.int_rename_lookups        25565474                       # Number of integer rename lookups
system.cpu0.rename.fp_rename_lookups               18                       # Number of floating rename lookups
system.cpu0.rename.CommittedMaps             17787476                       # Number of HB maps that are committed
system.cpu0.rename.UndoneMaps                 2003933                       # Number of HB maps that are undone due to squashing
system.cpu0.rename.serializingInsts               153                       # count of serializing insts renamed
system.cpu0.rename.tempSerializingInsts           156                       # count of temporary serializing insts renamed
system.cpu0.rename.skidInsts                  4974227                       # count of insts added to the skid buffer
system.cpu0.memDep0.insertedLoads             2961341                       # Number of loads inserted to the mem dependence unit.
system.cpu0.memDep0.insertedStores            1588134                       # Number of stores inserted to the mem dependence unit.
system.cpu0.memDep0.conflictingLoads           589738                       # Number of conflicting loads.
system.cpu0.memDep0.conflictingStores          254802                       # Number of conflicting stores.
system.cpu0.iq.iqInstsAdded                  16807693                       # Number of instructions added to the IQ (excludes non-spec)
system.cpu0.iq.iqNonSpecInstsAdded               1683                       # Number of non-speculative instructions added to the IQ
system.cpu0.iq.iqInstsIssued                 17404371                       # Number of instructions issued
system.cpu0.iq.iqSquashedInstsIssued            14579                       # Number of squashed instructions issued
system.cpu0.iq.iqSquashedInstsExamined        1438136                       # Number of squashed instructions iterated over during squash; mainly for profiling
system.cpu0.iq.iqSquashedOperandsExamined      2102482                       # Number of squashed operands that are examined and possibly removed from graph
system.cpu0.iq.iqSquashedNonSpecRemoved          1539                       # Number of squashed non-spec instructions that were removed
system.cpu0.iq.issued_per_cycle::samples     30531055                       # Number of insts issued each cycle
system.cpu0.iq.issued_per_cycle::mean        0.570055                       # Number of insts issued each cycle
system.cpu0.iq.issued_per_cycle::stdev       1.459886                       # Number of insts issued each cycle
system.cpu0.iq.issued_per_cycle::underflows            0      0.00%      0.00% # Number of insts issued each cycle
system.cpu0.iq.issued_per_cycle::0           24691307     80.87%     80.87% # Number of insts issued each cycle
system.cpu0.iq.issued_per_cycle::1            1906540      6.24%     87.12% # Number of insts issued each cycle
system.cpu0.iq.issued_per_cycle::2            1031379      3.38%     90.50% # Number of insts issued each cycle
system.cpu0.iq.issued_per_cycle::3             884520      2.90%     93.39% # Number of insts issued each cycle
system.cpu0.iq.issued_per_cycle::4             704660      2.31%     95.70% # Number of insts issued each cycle
system.cpu0.iq.issued_per_cycle::5             503804      1.65%     97.35% # Number of insts issued each cycle
system.cpu0.iq.issued_per_cycle::6             383208      1.26%     98.61% # Number of insts issued each cycle
system.cpu0.iq.issued_per_cycle::7             260491      0.85%     99.46% # Number of insts issued each cycle
system.cpu0.iq.issued_per_cycle::8             165146      0.54%    100.00% # Number of insts issued each cycle
system.cpu0.iq.issued_per_cycle::overflows            0      0.00%    100.00% # Number of insts issued each cycle
system.cpu0.iq.issued_per_cycle::min_value            0                       # Number of insts issued each cycle
system.cpu0.iq.issued_per_cycle::max_value            8                       # Number of insts issued each cycle
system.cpu0.iq.issued_per_cycle::total       30531055                       # Number of insts issued each cycle
system.cpu0.iq.fu_full::No_OpClass                  0      0.00%      0.00% # attempts to use FU when none available
system.cpu0.iq.fu_full::IntAlu                  88703     24.56%     24.56% # attempts to use FU when none available
system.cpu0.iq.fu_full::IntMult                     0      0.00%     24.56% # attempts to use FU when none available
system.cpu0.iq.fu_full::IntDiv                      0      0.00%     24.56% # attempts to use FU when none available
system.cpu0.iq.fu_full::FloatAdd                    0      0.00%     24.56% # attempts to use FU when none available
system.cpu0.iq.fu_full::FloatCmp                    0      0.00%     24.56% # attempts to use FU when none available
system.cpu0.iq.fu_full::FloatCvt                    0      0.00%     24.56% # attempts to use FU when none available
system.cpu0.iq.fu_full::FloatMult                   0      0.00%     24.56% # attempts to use FU when none available
system.cpu0.iq.fu_full::FloatMultAcc                0      0.00%     24.56% # attempts to use FU when none available
system.cpu0.iq.fu_full::FloatDiv                    0      0.00%     24.56% # attempts to use FU when none available
system.cpu0.iq.fu_full::FloatMisc                   0      0.00%     24.56% # attempts to use FU when none available
system.cpu0.iq.fu_full::FloatSqrt                   0      0.00%     24.56% # attempts to use FU when none available
system.cpu0.iq.fu_full::SimdAdd                     0      0.00%     24.56% # attempts to use FU when none available
system.cpu0.iq.fu_full::SimdAddAcc                  0      0.00%     24.56% # attempts to use FU when none available
system.cpu0.iq.fu_full::SimdAlu                     0      0.00%     24.56% # attempts to use FU when none available
system.cpu0.iq.fu_full::SimdCmp                     0      0.00%     24.56% # attempts to use FU when none available
system.cpu0.iq.fu_full::SimdCvt                     0      0.00%     24.56% # attempts to use FU when none available
system.cpu0.iq.fu_full::SimdMisc                    0      0.00%     24.56% # attempts to use FU when none available
system.cpu0.iq.fu_full::SimdMult                    0      0.00%     24.56% # attempts to use FU when none available
system.cpu0.iq.fu_full::SimdMultAcc                 0      0.00%     24.56% # attempts to use FU when none available
system.cpu0.iq.fu_full::SimdShift                   0      0.00%     24.56% # attempts to use FU when none available
system.cpu0.iq.fu_full::SimdShiftAcc                0      0.00%     24.56% # attempts to use FU when none available
system.cpu0.iq.fu_full::SimdSqrt                    0      0.00%     24.56% # attempts to use FU when none available
system.cpu0.iq.fu_full::SimdFloatAdd                0      0.00%     24.56% # attempts to use FU when none available
system.cpu0.iq.fu_full::SimdFloatAlu                0      0.00%     24.56% # attempts to use FU when none available
system.cpu0.iq.fu_full::SimdFloatCmp                0      0.00%     24.56% # attempts to use FU when none available
system.cpu0.iq.fu_full::SimdFloatCvt                0      0.00%     24.56% # attempts to use FU when none available
system.cpu0.iq.fu_full::SimdFloatDiv                0      0.00%     24.56% # attempts to use FU when none available
system.cpu0.iq.fu_full::SimdFloatMisc               0      0.00%     24.56% # attempts to use FU when none available
system.cpu0.iq.fu_full::SimdFloatMult               0      0.00%     24.56% # attempts to use FU when none available
system.cpu0.iq.fu_full::SimdFloatMultAcc            0      0.00%     24.56% # attempts to use FU when none available
system.cpu0.iq.fu_full::SimdFloatSqrt               0      0.00%     24.56% # attempts to use FU when none available
system.cpu0.iq.fu_full::MemRead                166115     45.99%     70.55% # attempts to use FU when none available
system.cpu0.iq.fu_full::MemWrite               106380     29.45%    100.00% # attempts to use FU when none available
system.cpu0.iq.fu_full::FloatMemRead                0      0.00%    100.00% # attempts to use FU when none available
system.cpu0.iq.fu_full::FloatMemWrite               0      0.00%    100.00% # attempts to use FU when none available
system.cpu0.iq.fu_full::IprAccess                   0      0.00%    100.00% # attempts to use FU when none available
system.cpu0.iq.fu_full::InstPrefetch                0      0.00%    100.00% # attempts to use FU when none available
system.cpu0.iq.FU_type_0::No_OpClass            31695      0.18%      0.18% # Type of FU issued
system.cpu0.iq.FU_type_0::IntAlu             11927495     68.53%     68.71% # Type of FU issued
system.cpu0.iq.FU_type_0::IntMult                   2      0.00%     68.71% # Type of FU issued
system.cpu0.iq.FU_type_0::IntDiv                    0      0.00%     68.71% # Type of FU issued
system.cpu0.iq.FU_type_0::FloatAdd                  0      0.00%     68.71% # Type of FU issued
system.cpu0.iq.FU_type_0::FloatCmp                  0      0.00%     68.71% # Type of FU issued
system.cpu0.iq.FU_type_0::FloatCvt                  0      0.00%     68.71% # Type of FU issued
system.cpu0.iq.FU_type_0::FloatMult                 0      0.00%     68.71% # Type of FU issued
system.cpu0.iq.FU_type_0::FloatMultAcc              0      0.00%     68.71% # Type of FU issued
system.cpu0.iq.FU_type_0::FloatDiv                  0      0.00%     68.71% # Type of FU issued
system.cpu0.iq.FU_type_0::FloatMisc                 0      0.00%     68.71% # Type of FU issued
system.cpu0.iq.FU_type_0::FloatSqrt                 0      0.00%     68.71% # Type of FU issued
system.cpu0.iq.FU_type_0::SimdAdd                   0      0.00%     68.71% # Type of FU issued
system.cpu0.iq.FU_type_0::SimdAddAcc                0      0.00%     68.71% # Type of FU issued
system.cpu0.iq.FU_type_0::SimdAlu                   0      0.00%     68.71% # Type of FU issued
system.cpu0.iq.FU_type_0::SimdCmp                   0      0.00%     68.71% # Type of FU issued
system.cpu0.iq.FU_type_0::SimdCvt                   0      0.00%     68.71% # Type of FU issued
system.cpu0.iq.FU_type_0::SimdMisc                  0      0.00%     68.71% # Type of FU issued
system.cpu0.iq.FU_type_0::SimdMult                  0      0.00%     68.71% # Type of FU issued
system.cpu0.iq.FU_type_0::SimdMultAcc               0      0.00%     68.71% # Type of FU issued
system.cpu0.iq.FU_type_0::SimdShift                 0      0.00%     68.71% # Type of FU issued
system.cpu0.iq.FU_type_0::SimdShiftAcc              0      0.00%     68.71% # Type of FU issued
system.cpu0.iq.FU_type_0::SimdSqrt                  0      0.00%     68.71% # Type of FU issued
system.cpu0.iq.FU_type_0::SimdFloatAdd              0      0.00%     68.71% # Type of FU issued
system.cpu0.iq.FU_type_0::SimdFloatAlu              0      0.00%     68.71% # Type of FU issued
system.cpu0.iq.FU_type_0::SimdFloatCmp              0      0.00%     68.71% # Type of FU issued
system.cpu0.iq.FU_type_0::SimdFloatCvt              0      0.00%     68.71% # Type of FU issued
system.cpu0.iq.FU_type_0::SimdFloatDiv              0      0.00%     68.71% # Type of FU issued
system.cpu0.iq.FU_type_0::SimdFloatMisc             0      0.00%     68.71% # Type of FU issued
system.cpu0.iq.FU_type_0::SimdFloatMult             0      0.00%     68.71% # Type of FU issued
system.cpu0.iq.FU_type_0::SimdFloatMultAcc            0      0.00%     68.71% # Type of FU issued
system.cpu0.iq.FU_type_0::SimdFloatSqrt             0      0.00%     68.71% # Type of FU issued
system.cpu0.iq.FU_type_0::MemRead             3913952     22.49%     91.20% # Type of FU issued
system.cpu0.iq.FU_type_0::MemWrite            1531227      8.80%    100.00% # Type of FU issued
system.cpu0.iq.FU_type_0::FloatMemRead              0      0.00%    100.00% # Type of FU issued
system.cpu0.iq.FU_type_0::FloatMemWrite             0      0.00%    100.00% # Type of FU issued
system.cpu0.iq.FU_type_0::IprAccess                 0      0.00%    100.00% # Type of FU issued
system.cpu0.iq.FU_type_0::InstPrefetch              0      0.00%    100.00% # Type of FU issued
system.cpu0.iq.FU_type_0::total              17404371                       # Type of FU issued
system.cpu0.iq.rate                          0.569987                       # Inst issue rate
system.cpu0.iq.fu_busy_cnt                     361198                       # FU busy when requested
system.cpu0.iq.fu_busy_rate                  0.020753                       # FU busy rate (busy events/executed inst)
system.cpu0.iq.int_inst_queue_reads          65715569                       # Number of integer instruction queue reads
system.cpu0.iq.int_inst_queue_writes         18247613                       # Number of integer instruction queue writes
system.cpu0.iq.int_inst_queue_wakeup_accesses     16209611                       # Number of integer instruction queue wakeup accesses
system.cpu0.iq.fp_inst_queue_reads                  0                       # Number of floating instruction queue reads
system.cpu0.iq.fp_inst_queue_writes                 0                       # Number of floating instruction queue writes
system.cpu0.iq.fp_inst_queue_wakeup_accesses            0                       # Number of floating instruction queue wakeup accesses
system.cpu0.iq.vec_inst_queue_reads                 0                       # Number of vector instruction queue reads
system.cpu0.iq.vec_inst_queue_writes                0                       # Number of vector instruction queue writes
system.cpu0.iq.vec_inst_queue_wakeup_accesses            0                       # Number of vector instruction queue wakeup accesses
system.cpu0.iq.int_alu_accesses              17733874                       # Number of integer alu accesses
system.cpu0.iq.fp_alu_accesses                      0                       # Number of floating point alu accesses
system.cpu0.iq.vec_alu_accesses                     0                       # Number of vector alu accesses
system.cpu0.iew.lsq.thread0.forwLoads          332872                       # Number of loads that had data forwarded from stores
system.cpu0.iew.lsq.thread0.invAddrLoads            0                       # Number of loads ignored due to an invalid address
system.cpu0.iew.lsq.thread0.squashedLoads       235101                       # Number of loads squashed
system.cpu0.iew.lsq.thread0.ignoredResponses          232                       # Number of memory responses ignored because the instruction is squashed
system.cpu0.iew.lsq.thread0.memOrderViolation          103                       # Number of memory ordering violations
system.cpu0.iew.lsq.thread0.squashedStores       192730                       # Number of stores squashed
system.cpu0.iew.lsq.thread0.invAddrSwpfs            0                       # Number of software prefetches ignored due to an invalid address
system.cpu0.iew.lsq.thread0.blockedLoads            0                       # Number of blocked loads due to partial load-store forwarding
system.cpu0.iew.lsq.thread0.rescheduledLoads            0                       # Number of loads that were rescheduled
system.cpu0.iew.lsq.thread0.cacheBlocked      1187321                       # Number of times an access to memory failed due to the cache being blocked
system.cpu0.iew.iewIdleCycles                       0                       # Number of cycles IEW is idle
system.cpu0.iew.iewSquashCycles                 36314                       # Number of cycles IEW is squashing
system.cpu0.iew.iewBlockCycles               11514056                       # Number of cycles IEW is blocking
system.cpu0.iew.iewUnblockCycles              3863359                       # Number of cycles IEW is unblocking
system.cpu0.iew.iewDispatchedInsts           16809376                       # Number of instructions dispatched to IQ
system.cpu0.iew.iewDispSquashedInsts             2154                       # Number of squashed instructions skipped by dispatch
system.cpu0.iew.iewDispLoadInsts              2961341                       # Number of dispatched load instructions
system.cpu0.iew.iewDispStoreInsts             1588134                       # Number of dispatched store instructions
system.cpu0.iew.iewDispNonSpecInsts               664                       # Number of dispatched non-speculative instructions
system.cpu0.iew.iewIQFullEvents                146125                       # Number of times the IQ has become full, causing a stall
system.cpu0.iew.iewLSQFullEvents              3646983                       # Number of times the LSQ has become full, causing a stall
system.cpu0.iew.memOrderViolationEvents           103                       # Number of memory order violations
system.cpu0.iew.predictedTakenIncorrect         24860                       # Number of branches that were predicted taken incorrectly
system.cpu0.iew.predictedNotTakenIncorrect        18570                       # Number of branches that were predicted not taken incorrectly
system.cpu0.iew.branchMispredicts               43430                       # Number of branch mispredicts detected at execute
system.cpu0.iew.iewExecutedInsts             17316831                       # Number of executed instructions
system.cpu0.iew.iewExecLoadInsts              3887613                       # Number of load instructions executed
system.cpu0.iew.iewExecSquashedInsts            87535                       # Number of squashed instructions skipped in execute
system.cpu0.iew.exec_swp                            0                       # number of swp insts executed
system.cpu0.iew.exec_nop                            0                       # number of nop insts executed
system.cpu0.iew.exec_refs                     5403329                       # number of memory reference insts executed
system.cpu0.iew.exec_branches                 1925118                       # Number of branches executed
system.cpu0.iew.exec_stores                   1515716                       # Number of stores executed
system.cpu0.iew.exec_rate                    0.567120                       # Inst execution rate
system.cpu0.iew.wb_sent                      16215377                       # cumulative count of insts sent to commit
system.cpu0.iew.wb_count                     16209611                       # cumulative count of insts written-back
system.cpu0.iew.wb_producers                 11776113                       # num instructions producing a value
system.cpu0.iew.wb_consumers                 20144384                       # num instructions consuming a value
system.cpu0.iew.wb_rate                      0.530859                       # insts written-back per cycle
system.cpu0.iew.wb_fanout                    0.584585                       # average fanout of values written-back
system.cpu0.commit.commitSquashedInsts        1439607                       # The number of squashed insts skipped by commit
system.cpu0.commit.commitNonSpecStalls            144                       # The number of times commit has been forced to stall to communicate backwards
system.cpu0.commit.branchMispredicts            36223                       # The number of times a branch was mispredicted
system.cpu0.commit.committed_per_cycle::samples     30318284                       # Number of insts commited each cycle
system.cpu0.commit.committed_per_cycle::mean     0.506994                       # Number of insts commited each cycle
system.cpu0.commit.committed_per_cycle::stdev     1.803791                       # Number of insts commited each cycle
system.cpu0.commit.committed_per_cycle::underflows            0      0.00%      0.00% # Number of insts commited each cycle
system.cpu0.commit.committed_per_cycle::0     27442545     90.51%     90.51% # Number of insts commited each cycle
system.cpu0.commit.committed_per_cycle::1       455707      1.50%     92.02% # Number of insts commited each cycle
system.cpu0.commit.committed_per_cycle::2       223635      0.74%     92.76% # Number of insts commited each cycle
system.cpu0.commit.committed_per_cycle::3       482915      1.59%     94.35% # Number of insts commited each cycle
system.cpu0.commit.committed_per_cycle::4        80321      0.26%     94.61% # Number of insts commited each cycle
system.cpu0.commit.committed_per_cycle::5        42630      0.14%     94.75% # Number of insts commited each cycle
system.cpu0.commit.committed_per_cycle::6        92595      0.31%     95.06% # Number of insts commited each cycle
system.cpu0.commit.committed_per_cycle::7        54012      0.18%     95.24% # Number of insts commited each cycle
system.cpu0.commit.committed_per_cycle::8      1443924      4.76%    100.00% # Number of insts commited each cycle
system.cpu0.commit.committed_per_cycle::overflows            0      0.00%    100.00% # Number of insts commited each cycle
system.cpu0.commit.committed_per_cycle::min_value            0                       # Number of insts commited each cycle
system.cpu0.commit.committed_per_cycle::max_value            8                       # Number of insts commited each cycle
system.cpu0.commit.committed_per_cycle::total     30318284                       # Number of insts commited each cycle
system.cpu0.commit.committedInsts             8271908                       # Number of instructions committed
system.cpu0.commit.committedOps              15371202                       # Number of ops (including micro ops) committed
system.cpu0.commit.swp_count                        0                       # Number of s/w prefetches committed
system.cpu0.commit.refs                       4121653                       # Number of memory references committed
system.cpu0.commit.loads                      2726250                       # Number of loads committed
system.cpu0.commit.membars                         96                       # Number of memory barriers committed
system.cpu0.commit.branches                   1868558                       # Number of branches committed
system.cpu0.commit.vec_insts                        0                       # Number of committed Vector instructions.
system.cpu0.commit.fp_insts                         0                       # Number of committed floating point instructions.
system.cpu0.commit.int_insts                 15349937                       # Number of committed integer instructions.
system.cpu0.commit.function_calls               38850                       # Number of function calls committed.
system.cpu0.commit.op_class_0::No_OpClass        21169      0.14%      0.14% # Class of committed instruction
system.cpu0.commit.op_class_0::IntAlu        11228380     73.05%     73.19% # Class of committed instruction
system.cpu0.commit.op_class_0::IntMult              0      0.00%     73.19% # Class of committed instruction
system.cpu0.commit.op_class_0::IntDiv               0      0.00%     73.19% # Class of committed instruction
system.cpu0.commit.op_class_0::FloatAdd             0      0.00%     73.19% # Class of committed instruction
system.cpu0.commit.op_class_0::FloatCmp             0      0.00%     73.19% # Class of committed instruction
system.cpu0.commit.op_class_0::FloatCvt             0      0.00%     73.19% # Class of committed instruction
system.cpu0.commit.op_class_0::FloatMult            0      0.00%     73.19% # Class of committed instruction
system.cpu0.commit.op_class_0::FloatMultAcc            0      0.00%     73.19% # Class of committed instruction
system.cpu0.commit.op_class_0::FloatDiv             0      0.00%     73.19% # Class of committed instruction
system.cpu0.commit.op_class_0::FloatMisc            0      0.00%     73.19% # Class of committed instruction
system.cpu0.commit.op_class_0::FloatSqrt            0      0.00%     73.19% # Class of committed instruction
system.cpu0.commit.op_class_0::SimdAdd              0      0.00%     73.19% # Class of committed instruction
system.cpu0.commit.op_class_0::SimdAddAcc            0      0.00%     73.19% # Class of committed instruction
system.cpu0.commit.op_class_0::SimdAlu              0      0.00%     73.19% # Class of committed instruction
system.cpu0.commit.op_class_0::SimdCmp              0      0.00%     73.19% # Class of committed instruction
system.cpu0.commit.op_class_0::SimdCvt              0      0.00%     73.19% # Class of committed instruction
system.cpu0.commit.op_class_0::SimdMisc             0      0.00%     73.19% # Class of committed instruction
system.cpu0.commit.op_class_0::SimdMult             0      0.00%     73.19% # Class of committed instruction
system.cpu0.commit.op_class_0::SimdMultAcc            0      0.00%     73.19% # Class of committed instruction
system.cpu0.commit.op_class_0::SimdShift            0      0.00%     73.19% # Class of committed instruction
system.cpu0.commit.op_class_0::SimdShiftAcc            0      0.00%     73.19% # Class of committed instruction
system.cpu0.commit.op_class_0::SimdSqrt             0      0.00%     73.19% # Class of committed instruction
system.cpu0.commit.op_class_0::SimdFloatAdd            0      0.00%     73.19% # Class of committed instruction
system.cpu0.commit.op_class_0::SimdFloatAlu            0      0.00%     73.19% # Class of committed instruction
system.cpu0.commit.op_class_0::SimdFloatCmp            0      0.00%     73.19% # Class of committed instruction
system.cpu0.commit.op_class_0::SimdFloatCvt            0      0.00%     73.19% # Class of committed instruction
system.cpu0.commit.op_class_0::SimdFloatDiv            0      0.00%     73.19% # Class of committed instruction
system.cpu0.commit.op_class_0::SimdFloatMisc            0      0.00%     73.19% # Class of committed instruction
system.cpu0.commit.op_class_0::SimdFloatMult            0      0.00%     73.19% # Class of committed instruction
system.cpu0.commit.op_class_0::SimdFloatMultAcc            0      0.00%     73.19% # Class of committed instruction
system.cpu0.commit.op_class_0::SimdFloatSqrt            0      0.00%     73.19% # Class of committed instruction
system.cpu0.commit.op_class_0::MemRead        2726250     17.74%     90.92% # Class of committed instruction
system.cpu0.commit.op_class_0::MemWrite       1395403      9.08%    100.00% # Class of committed instruction
system.cpu0.commit.op_class_0::FloatMemRead            0      0.00%    100.00% # Class of committed instruction
system.cpu0.commit.op_class_0::FloatMemWrite            0      0.00%    100.00% # Class of committed instruction
system.cpu0.commit.op_class_0::IprAccess            0      0.00%    100.00% # Class of committed instruction
system.cpu0.commit.op_class_0::InstPrefetch            0      0.00%    100.00% # Class of committed instruction
system.cpu0.commit.op_class_0::total         15371202                       # Class of committed instruction
system.cpu0.commit.bw_lim_events              1443924                       # number cycles where commit BW limit reached
system.cpu0.rob.rob_reads                    45685169                       # The number of ROB reads
system.cpu0.rob.rob_writes                   33836054                       # The number of ROB writes
system.cpu0.timesIdled                             18                       # Number of times that the entire CPU went into an idle state and unscheduled itself
system.cpu0.idleCycles                           3633                       # Total number of cycles that the CPU has spent unscheduled due to idling
system.cpu0.committedInsts                    8271908                       # Number of Instructions Simulated
system.cpu0.committedOps                     15371202                       # Number of Ops (including micro ops) Simulated
system.cpu0.cpi                              3.691372                       # CPI: Cycles Per Instruction
system.cpu0.cpi_total                        3.691372                       # CPI: Total CPI of All Threads
system.cpu0.ipc                              0.270902                       # IPC: Instructions Per Cycle
system.cpu0.ipc_total                        0.270902                       # IPC: Total IPC of All Threads
system.cpu0.int_regfile_reads                26093492                       # number of integer regfile reads
system.cpu0.int_regfile_writes               12742221                       # number of integer regfile writes
system.cpu0.cc_regfile_reads                 10754226                       # number of cc regfile reads
system.cpu0.cc_regfile_writes                 5914568                       # number of cc regfile writes
system.cpu0.misc_regfile_reads                9352320                       # number of misc regfile reads
system.cpu0.dcache.tags.pwrStateResidencyTicks::UNDEFINED  15267344125                       # Cumulative time (in ticks) in various power states
system.cpu0.dcache.tags.replacements           695873                       # number of replacements
system.cpu0.dcache.tags.tagsinuse                1024                       # Cycle average of tags in use
system.cpu0.dcache.tags.total_refs            1891589                       # Total number of references to valid blocks.
system.cpu0.dcache.tags.sampled_refs           695873                       # Sample count of references to valid blocks.
system.cpu0.dcache.tags.avg_refs             2.718296                       # Average number of references to valid blocks.
system.cpu0.dcache.tags.warmup_cycle                0                       # Cycle when the warmup percentage was hit.
system.cpu0.dcache.tags.occ_blocks::cpu0.data         1024                       # Average occupied blocks per requestor
system.cpu0.dcache.tags.occ_percent::cpu0.data            1                       # Average percentage of cache occupancy
system.cpu0.dcache.tags.occ_percent::total            1                       # Average percentage of cache occupancy
system.cpu0.dcache.tags.occ_task_id_blocks::1024         1024                       # Occupied blocks per task id
system.cpu0.dcache.tags.age_task_id_blocks_1024::0           84                       # Occupied blocks per task id
system.cpu0.dcache.tags.age_task_id_blocks_1024::1          751                       # Occupied blocks per task id
system.cpu0.dcache.tags.age_task_id_blocks_1024::2          177                       # Occupied blocks per task id
system.cpu0.dcache.tags.age_task_id_blocks_1024::3           11                       # Occupied blocks per task id
system.cpu0.dcache.tags.age_task_id_blocks_1024::4            1                       # Occupied blocks per task id
system.cpu0.dcache.tags.occ_task_id_percent::1024            1                       # Percentage of cache occupancy per task id
system.cpu0.dcache.tags.tag_accesses         16260725                       # Number of tag accesses
system.cpu0.dcache.tags.data_accesses        16260725                       # Number of data accesses
system.cpu0.dcache.pwrStateResidencyTicks::UNDEFINED  15267344125                       # Cumulative time (in ticks) in various power states
system.cpu0.dcache.ReadReq_hits::cpu0.data      1233327                       # number of ReadReq hits
system.cpu0.dcache.ReadReq_hits::total        1233327                       # number of ReadReq hits
system.cpu0.dcache.WriteReq_hits::cpu0.data      1392978                       # number of WriteReq hits
system.cpu0.dcache.WriteReq_hits::total       1392978                       # number of WriteReq hits
system.cpu0.dcache.demand_hits::cpu0.data      2626305                       # number of demand (read+write) hits
system.cpu0.dcache.demand_hits::total         2626305                       # number of demand (read+write) hits
system.cpu0.dcache.overall_hits::cpu0.data      2626305                       # number of overall hits
system.cpu0.dcache.overall_hits::total        2626305                       # number of overall hits
system.cpu0.dcache.ReadReq_misses::cpu0.data      1262487                       # number of ReadReq misses
system.cpu0.dcache.ReadReq_misses::total      1262487                       # number of ReadReq misses
system.cpu0.dcache.WriteReq_misses::cpu0.data         2421                       # number of WriteReq misses
system.cpu0.dcache.WriteReq_misses::total         2421                       # number of WriteReq misses
system.cpu0.dcache.demand_misses::cpu0.data      1264908                       # number of demand (read+write) misses
system.cpu0.dcache.demand_misses::total       1264908                       # number of demand (read+write) misses
system.cpu0.dcache.overall_misses::cpu0.data      1264908                       # number of overall misses
system.cpu0.dcache.overall_misses::total      1264908                       # number of overall misses
system.cpu0.dcache.ReadReq_miss_latency::cpu0.data  72814022000                       # number of ReadReq miss cycles
system.cpu0.dcache.ReadReq_miss_latency::total  72814022000                       # number of ReadReq miss cycles
system.cpu0.dcache.WriteReq_miss_latency::cpu0.data    217415829                       # number of WriteReq miss cycles
system.cpu0.dcache.WriteReq_miss_latency::total    217415829                       # number of WriteReq miss cycles
system.cpu0.dcache.demand_miss_latency::cpu0.data  73031437829                       # number of demand (read+write) miss cycles
system.cpu0.dcache.demand_miss_latency::total  73031437829                       # number of demand (read+write) miss cycles
system.cpu0.dcache.overall_miss_latency::cpu0.data  73031437829                       # number of overall miss cycles
system.cpu0.dcache.overall_miss_latency::total  73031437829                       # number of overall miss cycles
system.cpu0.dcache.ReadReq_accesses::cpu0.data      2495814                       # number of ReadReq accesses(hits+misses)
system.cpu0.dcache.ReadReq_accesses::total      2495814                       # number of ReadReq accesses(hits+misses)
system.cpu0.dcache.WriteReq_accesses::cpu0.data      1395399                       # number of WriteReq accesses(hits+misses)
system.cpu0.dcache.WriteReq_accesses::total      1395399                       # number of WriteReq accesses(hits+misses)
system.cpu0.dcache.demand_accesses::cpu0.data      3891213                       # number of demand (read+write) accesses
system.cpu0.dcache.demand_accesses::total      3891213                       # number of demand (read+write) accesses
system.cpu0.dcache.overall_accesses::cpu0.data      3891213                       # number of overall (read+write) accesses
[...]
system.l2.ReadExReq_miss_rate::cpu0.data     0.894309                       # miss rate for ReadExReq accesses
system.l2.ReadExReq_miss_rate::total         0.894309                       # miss rate for ReadExReq accesses
system.l2.ReadCleanReq_miss_rate::cpu0.inst            1                       # miss rate for ReadCleanReq accesses
system.l2.ReadCleanReq_miss_rate::total             1                       # miss rate for ReadCleanReq accesses
system.l2.ReadSharedReq_miss_rate::cpu0.data     0.487181                       # miss rate for ReadSharedReq accesses
system.l2.ReadSharedReq_miss_rate::total     0.487181                       # miss rate for ReadSharedReq accesses
system.l2.demand_miss_rate::cpu0.inst               1                       # miss rate for demand accesses
system.l2.demand_miss_rate::cpu0.data        0.488476                       # miss rate for demand accesses
system.l2.demand_miss_rate::total            0.488498                       # miss rate for demand accesses
system.l2.overall_miss_rate::cpu0.inst              1                       # miss rate for overall accesses
system.l2.overall_miss_rate::cpu0.data       0.488476                       # miss rate for overall accesses
system.l2.overall_miss_rate::total           0.488498                       # miss rate for overall accesses
system.l2.ReadExReq_avg_miss_latency::cpu0.data 100961.616162                       # average ReadExReq miss latency
system.l2.ReadExReq_avg_miss_latency::total 100961.616162                       # average ReadExReq miss latency
system.l2.ReadCleanReq_avg_miss_latency::cpu0.inst 127810.344828                       # average ReadCleanReq miss latency
system.l2.ReadCleanReq_avg_miss_latency::total 127810.344828                       # average ReadCleanReq miss latency
system.l2.ReadSharedReq_avg_miss_latency::cpu0.data 105862.391104                       # average ReadSharedReq miss latency
system.l2.ReadSharedReq_avg_miss_latency::total 105862.391104                       # average ReadSharedReq miss latency
system.l2.demand_avg_miss_latency::cpu0.inst 127810.344828                       # average overall miss latency
system.l2.demand_avg_miss_latency::cpu0.data 105833.844244                       # average overall miss latency
system.l2.demand_avg_miss_latency::total 105835.719013                       # average overall miss latency
system.l2.overall_avg_miss_latency::cpu0.inst 127810.344828                       # average overall miss latency
system.l2.overall_avg_miss_latency::cpu0.data 105833.844244                       # average overall miss latency
system.l2.overall_avg_miss_latency::total 105835.719013                       # average overall miss latency
system.l2.blocked_cycles::no_mshrs                  0                       # number of cycles access was blocked
system.l2.blocked_cycles::no_targets                0                       # number of cycles access was blocked
system.l2.blocked::no_mshrs                         0                       # number of cycles access was blocked
system.l2.blocked::no_targets                       0                       # number of cycles access was blocked
system.l2.avg_blocked_cycles::no_mshrs            nan                       # average number of cycles each access was blocked
system.l2.avg_blocked_cycles::no_targets          nan                       # average number of cycles each access was blocked
system.l2.writebacks::writebacks               278203                       # number of writebacks
system.l2.writebacks::total                    278203                       # number of writebacks
system.l2.ReadExReq_mshr_misses::cpu0.data         1980                       # number of ReadExReq MSHR misses
system.l2.ReadExReq_mshr_misses::total           1980                       # number of ReadExReq MSHR misses
system.l2.ReadCleanReq_mshr_misses::cpu0.inst           29                       # number of ReadCleanReq MSHR misses
system.l2.ReadCleanReq_mshr_misses::total           29                       # number of ReadCleanReq MSHR misses
system.l2.ReadSharedReq_mshr_misses::cpu0.data       337936                       # number of ReadSharedReq MSHR misses
system.l2.ReadSharedReq_mshr_misses::total       337936                       # number of ReadSharedReq MSHR misses
system.l2.demand_mshr_misses::cpu0.inst            29                       # number of demand (read+write) MSHR misses
system.l2.demand_mshr_misses::cpu0.data        339916                       # number of demand (read+write) MSHR misses
system.l2.demand_mshr_misses::total            339945                       # number of demand (read+write) MSHR misses
system.l2.overall_mshr_misses::cpu0.inst           29                       # number of overall MSHR misses
system.l2.overall_mshr_misses::cpu0.data       339916                       # number of overall MSHR misses
system.l2.overall_mshr_misses::total           339945                       # number of overall MSHR misses
system.l2.ReadExReq_mshr_miss_latency::cpu0.data    180104000                       # number of ReadExReq MSHR miss cycles
system.l2.ReadExReq_mshr_miss_latency::total    180104000                       # number of ReadExReq MSHR miss cycles
system.l2.ReadCleanReq_mshr_miss_latency::cpu0.inst      3416500                       # number of ReadCleanReq MSHR miss cycles
system.l2.ReadCleanReq_mshr_miss_latency::total      3416500                       # number of ReadCleanReq MSHR miss cycles
system.l2.ReadSharedReq_mshr_miss_latency::cpu0.data  32395323000                       # number of ReadSharedReq MSHR miss cycles
system.l2.ReadSharedReq_mshr_miss_latency::total  32395323000                       # number of ReadSharedReq MSHR miss cycles
system.l2.demand_mshr_miss_latency::cpu0.inst      3416500                       # number of demand (read+write) MSHR miss cycles
system.l2.demand_mshr_miss_latency::cpu0.data  32575427000                       # number of demand (read+write) MSHR miss cycles
system.l2.demand_mshr_miss_latency::total  32578843500                       # number of demand (read+write) MSHR miss cycles
system.l2.overall_mshr_miss_latency::cpu0.inst      3416500                       # number of overall MSHR miss cycles
system.l2.overall_mshr_miss_latency::cpu0.data  32575427000                       # number of overall MSHR miss cycles
system.l2.overall_mshr_miss_latency::total  32578843500                       # number of overall MSHR miss cycles
system.l2.ReadExReq_mshr_miss_rate::cpu0.data     0.894309                       # mshr miss rate for ReadExReq accesses
system.l2.ReadExReq_mshr_miss_rate::total     0.894309                       # mshr miss rate for ReadExReq accesses
system.l2.ReadCleanReq_mshr_miss_rate::cpu0.inst            1                       # mshr miss rate for ReadCleanReq accesses
system.l2.ReadCleanReq_mshr_miss_rate::total            1                       # mshr miss rate for ReadCleanReq accesses
system.l2.ReadSharedReq_mshr_miss_rate::cpu0.data     0.487181                       # mshr miss rate for ReadSharedReq accesses
system.l2.ReadSharedReq_mshr_miss_rate::total     0.487181                       # mshr miss rate for ReadSharedReq accesses
system.l2.demand_mshr_miss_rate::cpu0.inst            1                       # mshr miss rate for demand accesses
system.l2.demand_mshr_miss_rate::cpu0.data     0.488476                       # mshr miss rate for demand accesses
system.l2.demand_mshr_miss_rate::total       0.488498                       # mshr miss rate for demand accesses
system.l2.overall_mshr_miss_rate::cpu0.inst            1                       # mshr miss rate for overall accesses
system.l2.overall_mshr_miss_rate::cpu0.data     0.488476                       # mshr miss rate for overall accesses
system.l2.overall_mshr_miss_rate::total      0.488498                       # mshr miss rate for overall accesses
system.l2.ReadExReq_avg_mshr_miss_latency::cpu0.data 90961.616162                       # average ReadExReq mshr miss latency
system.l2.ReadExReq_avg_mshr_miss_latency::total 90961.616162                       # average ReadExReq mshr miss latency
system.l2.ReadCleanReq_avg_mshr_miss_latency::cpu0.inst 117810.344828                       # average ReadCleanReq mshr miss latency
system.l2.ReadCleanReq_avg_mshr_miss_latency::total 117810.344828                       # average ReadCleanReq mshr miss latency
system.l2.ReadSharedReq_avg_mshr_miss_latency::cpu0.data 95862.302329                       # average ReadSharedReq mshr miss latency
system.l2.ReadSharedReq_avg_mshr_miss_latency::total 95862.302329                       # average ReadSharedReq mshr miss latency
system.l2.demand_avg_mshr_miss_latency::cpu0.inst 117810.344828                       # average overall mshr miss latency
system.l2.demand_avg_mshr_miss_latency::cpu0.data 95833.755987                       # average overall mshr miss latency
system.l2.demand_avg_mshr_miss_latency::total 95835.630764                       # average overall mshr miss latency
system.l2.overall_avg_mshr_miss_latency::cpu0.inst 117810.344828                       # average overall mshr miss latency
system.l2.overall_avg_mshr_miss_latency::cpu0.data 95833.755987                       # average overall mshr miss latency
system.l2.overall_avg_mshr_miss_latency::total 95835.630764                       # average overall mshr miss latency
system.membus.snoop_filter.tot_requests        679918                       # Total number of requests made to the snoop filter.
system.membus.snoop_filter.hit_single_requests       339973                       # Number of requests hitting in the snoop filter with a single holder of the requested data.
system.membus.snoop_filter.hit_multi_requests            0                       # Number of requests hitting in the snoop filter with multiple (>1) holders of the requested data.
system.membus.snoop_filter.tot_snoops               0                       # Total number of snoops made to the snoop filter.
system.membus.snoop_filter.hit_single_snoops            0                       # Number of snoops hitting in the snoop filter with a single holder of the requested data.
system.membus.snoop_filter.hit_multi_snoops            0                       # Number of snoops hitting in the snoop filter with multiple (>1) holders of the requested data.
system.membus.pwrStateResidencyTicks::UNDEFINED  15267344125                       # Cumulative time (in ticks) in various power states
system.membus.trans_dist::ReadResp             337968                       # Transaction distribution
system.membus.trans_dist::WritebackDirty       278203                       # Transaction distribution
system.membus.trans_dist::CleanEvict            61770                       # Transaction distribution
system.membus.trans_dist::ReadExReq              1980                       # Transaction distribution
system.membus.trans_dist::ReadExResp             1980                       # Transaction distribution
system.membus.trans_dist::ReadSharedReq        337965                       # Transaction distribution
system.membus.pkt_count_system.l2.mem_side::system.mem_ctrls.port      1019866                       # Packet count per connected master and slave (bytes)
system.membus.pkt_count_system.l2.mem_side::total      1019866                       # Packet count per connected master and slave (bytes)
system.membus.pkt_count::total                1019866                       # Packet count per connected master and slave (bytes)
system.membus.pkt_size_system.l2.mem_side::system.mem_ctrls.port     39561664                       # Cumulative packet size per connected master and slave (bytes)
system.membus.pkt_size_system.l2.mem_side::total     39561664                       # Cumulative packet size per connected master and slave (bytes)
system.membus.pkt_size::total                39561664                       # Cumulative packet size per connected master and slave (bytes)
system.membus.snoops                                0                       # Total snoops (count)
system.membus.snoopTraffic                          0                       # Total snoop traffic (bytes)
system.membus.snoop_fanout::samples            339945                       # Request fanout histogram
system.membus.snoop_fanout::mean                    0                       # Request fanout histogram
system.membus.snoop_fanout::stdev                   0                       # Request fanout histogram
system.membus.snoop_fanout::underflows              0      0.00%      0.00% # Request fanout histogram
system.membus.snoop_fanout::0                  339945    100.00%    100.00% # Request fanout histogram
system.membus.snoop_fanout::1                       0      0.00%    100.00% # Request fanout histogram
system.membus.snoop_fanout::overflows               0      0.00%    100.00% # Request fanout histogram
system.membus.snoop_fanout::min_value               0                       # Request fanout histogram
system.membus.snoop_fanout::max_value               0                       # Request fanout histogram
system.membus.snoop_fanout::total              339945                       # Request fanout histogram
system.membus.reqLayer8.occupancy          1855761000                       # Layer occupancy (ticks)
system.membus.reqLayer8.utilization              12.2                       # Layer utilization (%)
system.membus.respLayer1.occupancy         1793781000                       # Layer occupancy (ticks)
system.membus.respLayer1.utilization             11.7                       # Layer utilization (%)
system.tol2bus.snoop_filter.tot_requests      1391801                       # Total number of requests made to the snoop filter.
system.tol2bus.snoop_filter.hit_single_requests       695902                       # Number of requests hitting in the snoop filter with a single holder of the requested data.
system.tol2bus.snoop_filter.hit_multi_requests           19                       # Number of requests hitting in the snoop filter with multiple (>1) holders of the requested data.
system.tol2bus.snoop_filter.tot_snoops              4                       # Total number of snoops made to the snoop filter.
system.tol2bus.snoop_filter.hit_single_snoops            4                       # Number of snoops hitting in the snoop filter with a single holder of the requested data.
system.tol2bus.snoop_filter.hit_multi_snoops            0                       # Number of snoops hitting in the snoop filter with multiple (>1) holders of the requested data.
system.tol2bus.pwrStateResidencyTicks::UNDEFINED  15267344125                       # Cumulative time (in ticks) in various power states
system.tol2bus.trans_dist::ReadResp            693688                       # Transaction distribution
system.tol2bus.trans_dist::WritebackDirty       906414                       # Transaction distribution
system.tol2bus.trans_dist::WritebackClean           29                       # Transaction distribution
system.tol2bus.trans_dist::CleanEvict          129436                       # Transaction distribution
system.tol2bus.trans_dist::ReadExReq             2214                       # Transaction distribution
system.tol2bus.trans_dist::ReadExResp            2214                       # Transaction distribution
system.tol2bus.trans_dist::ReadCleanReq            29                       # Transaction distribution
system.tol2bus.trans_dist::ReadSharedReq       693656                       # Transaction distribution
system.tol2bus.pkt_count_system.cpu0.icache.mem_side::system.l2.cpu_side           87                       # Packet count per connected master and slave (bytes)
system.tol2bus.pkt_count_system.cpu0.dcache.mem_side::system.l2.cpu_side      2087616                       # Packet count per connected master and slave (bytes)
system.tol2bus.pkt_count::total               2087703                       # Packet count per connected master and slave (bytes)
system.tol2bus.pkt_size_system.cpu0.icache.mem_side::system.l2.cpu_side         3712                       # Cumulative packet size per connected master and slave (bytes)
system.tol2bus.pkt_size_system.cpu0.dcache.mem_side::system.l2.cpu_side     84741376                       # Cumulative packet size per connected master and slave (bytes)
system.tol2bus.pkt_size::total               84745088                       # Cumulative packet size per connected master and slave (bytes)
system.tol2bus.snoops                          339977                       # Total snoops (count)
system.tol2bus.snoopTraffic                  17804992                       # Total snoop traffic (bytes)
system.tol2bus.snoop_fanout::samples          1035876                       # Request fanout histogram
system.tol2bus.snoop_fanout::mean            0.000022                       # Request fanout histogram
system.tol2bus.snoop_fanout::stdev           0.004712                       # Request fanout histogram
system.tol2bus.snoop_fanout::underflows             0      0.00%      0.00% # Request fanout histogram
system.tol2bus.snoop_fanout::0                1035853    100.00%    100.00% # Request fanout histogram
system.tol2bus.snoop_fanout::1                     23      0.00%    100.00% # Request fanout histogram
system.tol2bus.snoop_fanout::2                      0      0.00%    100.00% # Request fanout histogram
system.tol2bus.snoop_fanout::3                      0      0.00%    100.00% # Request fanout histogram
system.tol2bus.snoop_fanout::4                      0      0.00%    100.00% # Request fanout histogram
system.tol2bus.snoop_fanout::5                      0      0.00%    100.00% # Request fanout histogram
system.tol2bus.snoop_fanout::6                      0      0.00%    100.00% # Request fanout histogram
system.tol2bus.snoop_fanout::7                      0      0.00%    100.00% # Request fanout histogram
system.tol2bus.snoop_fanout::8                      0      0.00%    100.00% # Request fanout histogram
system.tol2bus.snoop_fanout::9                      0      0.00%    100.00% # Request fanout histogram
system.tol2bus.snoop_fanout::10                     0      0.00%    100.00% # Request fanout histogram
system.tol2bus.snoop_fanout::11                     0      0.00%    100.00% # Request fanout histogram
system.tol2bus.snoop_fanout::12                     0      0.00%    100.00% # Request fanout histogram
system.tol2bus.snoop_fanout::13                     0      0.00%    100.00% # Request fanout histogram
system.tol2bus.snoop_fanout::14                     0      0.00%    100.00% # Request fanout histogram
system.tol2bus.snoop_fanout::15                     0      0.00%    100.00% # Request fanout histogram
system.tol2bus.snoop_fanout::16                     0      0.00%    100.00% # Request fanout histogram
system.tol2bus.snoop_fanout::overflows              0      0.00%    100.00% # Request fanout histogram
system.tol2bus.snoop_fanout::min_value              0                       # Request fanout histogram
system.tol2bus.snoop_fanout::max_value              1                       # Request fanout histogram
system.tol2bus.snoop_fanout::total            1035876                       # Request fanout histogram
system.tol2bus.reqLayer0.occupancy         1324140500                       # Layer occupancy (ticks)
system.tol2bus.reqLayer0.utilization              8.7                       # Layer utilization (%)
system.tol2bus.respLayer0.occupancy             43500                       # Layer occupancy (ticks)
system.tol2bus.respLayer0.utilization             0.0                       # Layer utilization (%)
system.tol2bus.respLayer1.occupancy        1043809500                       # Layer occupancy (ticks)
system.tol2bus.respLayer1.utilization             6.8                       # Layer utilization (%)

---------- End Simulation Statistics   ----------
