
---------- Begin Simulation Statistics ----------
sim_seconds                                  0.015267                       # Number of seconds simulated
sim_ticks                                 15267344125                       # Number of ticks simulated
final_tick                               7007710953375                       # Number of ticks from beginning of simulation (restored from checkpoints and never reset)
sim_freq                                 1000000000000                       # Frequency of simulated ticks
host_inst_rate                               86018188                       # Simulator instruction rate (inst/s)
host_op_rate                                160286090                       # Simulator op (including micro ops) rate (op/s)
host_tick_rate                              218459523                       # Simulator tick rate (ticks/s)
host_mem_usage                                2332640                       # Number of bytes of host memory used
host_seconds                                    69.89                       # Real time elapsed on the host
sim_insts                                  6011496060                       # Number of instructions simulated
sim_ops                                   11201810930                       # Number of ops (including micro ops) simulated
system.voltage_domain.voltage                       1                       # Voltage in Volts
system.clk_domain.clock                          1000                       # Clock period in ticks
system.mem_ctrls.pwrStateResidencyTicks::UNDEFINED  15267344125                       # Cumulative time (in ticks) in various power states
system.mem_ctrls.bytes_read::cpu0.inst             64                       # Number of bytes read from this memory
system.mem_ctrls.bytes_read::cpu0.data       11719104                       # Number of bytes read from this memory
system.mem_ctrls.bytes_read::total           11719168                       # Number of bytes read from this memory
system.mem_ctrls.bytes_inst_read::cpu0.inst           64                       # Number of instructions bytes read from this memory
system.mem_ctrls.bytes_inst_read::total            64                       # Number of instructions bytes read from this memory
system.mem_ctrls.bytes_written::writebacks        19712                       # Number of bytes written to this memory
system.mem_ctrls.bytes_written::total           19712                       # Number of bytes written to this memory
system.mem_ctrls.num_reads::cpu0.inst               1                       # Number of read requests responded to by this memory
system.mem_ctrls.num_reads::cpu0.data          183111                       # Number of read requests responded to by this memory
system.mem_ctrls.num_reads::total              183112                       # Number of read requests responded to by this memory
system.mem_ctrls.num_writes::writebacks           308                       # Number of write requests responded to by this memory
system.mem_ctrls.num_writes::total                308                       # Number of write requests responded to by this memory
system.mem_ctrls.bw_read::cpu0.inst              4192                       # Total read bandwidth from this memory (bytes/s)
system.mem_ctrls.bw_read::cpu0.data         767592838                       # Total read bandwidth from this memory (bytes/s)
system.mem_ctrls.bw_read::total             767597030                       # Total read bandwidth from this memory (bytes/s)
system.mem_ctrls.bw_inst_read::cpu0.inst         4192                       # Instruction read bandwidth from this memory (bytes/s)
system.mem_ctrls.bw_inst_read::total             4192                       # Instruction read bandwidth from this memory (bytes/s)
system.mem_ctrls.bw_write::writebacks         1291122                       # Write bandwidth from this memory (bytes/s)
system.mem_ctrls.bw_write::total              1291122                       # Write bandwidth from this memory (bytes/s)
system.mem_ctrls.bw_total::writebacks         1291122                       # Total bandwidth to/from this memory (bytes/s)
system.mem_ctrls.bw_total::cpu0.inst             4192                       # Total bandwidth to/from this memory (bytes/s)
system.mem_ctrls.bw_total::cpu0.data        767592838                       # Total bandwidth to/from this memory (bytes/s)
system.mem_ctrls.bw_total::total            768888151                       # Total bandwidth to/from this memory (bytes/s)
system.mem_ctrls.readReqs                      183112                       # Number of read requests accepted
system.mem_ctrls.writeReqs                        308                       # Number of write requests accepted
system.mem_ctrls.readBursts                    183112                       # Number of DRAM read bursts, including those serviced by the write queue
system.mem_ctrls.writeBursts                      308                       # Number of DRAM write bursts, including those merged in the write queue
system.mem_ctrls.bytesReadDRAM               11716288                       # Total number of bytes read from DRAM
system.mem_ctrls.bytesReadWrQ                    2880                       # Total number of bytes read from write queue
system.mem_ctrls.bytesWritten                   19456                       # Total number of bytes written to DRAM
system.mem_ctrls.bytesReadSys                11719168                       # Total read bytes from the system interface side
system.mem_ctrls.bytesWrittenSys                19712                       # Total written bytes from the system interface side
system.mem_ctrls.servicedByWrQ                     45                       # Number of DRAM read bursts serviced by the write queue
system.mem_ctrls.mergedWrBursts                     0                       # Number of DRAM write bursts merged with an existing one
system.mem_ctrls.neitherReadNorWriteReqs            0                       # Number of requests that are neither read nor write
system.mem_ctrls.perBankRdBursts::0             11472                       # Per bank write bursts
system.mem_ctrls.perBankRdBursts::1             11234                       # Per bank write bursts
system.mem_ctrls.perBankRdBursts::2             11331                       # Per bank write bursts
system.mem_ctrls.perBankRdBursts::3             11425                       # Per bank write bursts
system.mem_ctrls.perBankRdBursts::4             11416                       # Per bank write bursts
system.mem_ctrls.perBankRdBursts::5             11350                       # Per bank write bursts
system.mem_ctrls.perBankRdBursts::6             11506                       # Per bank write bursts
system.mem_ctrls.perBankRdBursts::7             11299                       # Per bank write bursts
system.mem_ctrls.perBankRdBursts::8             11204                       # Per bank write bursts
system.mem_ctrls.perBankRdBursts::9             11264                       # Per bank write bursts
system.mem_ctrls.perBankRdBursts::10            11635                       # Per bank write bursts
system.mem_ctrls.perBankRdBursts::11            11350                       # Per bank write bursts
system.mem_ctrls.perBankRdBursts::12            11765                       # Per bank write bursts
system.mem_ctrls.perBankRdBursts::13            11619                       # Per bank write bursts
system.mem_ctrls.perBankRdBursts::14            11664                       # Per bank write bursts
system.mem_ctrls.perBankRdBursts::15            11533                       # Per bank write bursts
system.mem_ctrls.perBankWrBursts::0                 0                       # Per bank write bursts
system.mem_ctrls.perBankWrBursts::1                 0                       # Per bank write bursts
system.mem_ctrls.perBankWrBursts::2                 0                       # Per bank write bursts
system.mem_ctrls.perBankWrBursts::3                10                       # Per bank write bursts
system.mem_ctrls.perBankWrBursts::4                 0                       # Per bank write bursts
system.mem_ctrls.perBankWrBursts::5                 0                       # Per bank write bursts
system.mem_ctrls.perBankWrBursts::6                 0                       # Per bank write bursts
system.mem_ctrls.perBankWrBursts::7                 0                       # Per bank write bursts
system.mem_ctrls.perBankWrBursts::8                 0                       # Per bank write bursts
system.mem_ctrls.perBankWrBursts::9                 3                       # Per bank write bursts
system.mem_ctrls.perBankWrBursts::10              121                       # Per bank write bursts
system.mem_ctrls.perBankWrBursts::11               78                       # Per bank write bursts
system.mem_ctrls.perBankWrBursts::12               92                       # Per bank write bursts
system.mem_ctrls.perBankWrBursts::13                0                       # Per bank write bursts
system.mem_ctrls.perBankWrBursts::14                0                       # Per bank write bursts
system.mem_ctrls.perBankWrBursts::15                0                       # Per bank write bursts
system.mem_ctrls.numRdRetry                         0                       # Number of times read queue was full causing retry
system.mem_ctrls.numWrRetry                         0                       # Number of times write queue was full causing retry
system.mem_ctrls.totGap                   15267320000                       # Total gap between requests
system.mem_ctrls.readPktSize::0                     0                       # Read request sizes (log2)
system.mem_ctrls.readPktSize::1                     0                       # Read request sizes (log2)
system.mem_ctrls.readPktSize::2                     0                       # Read request sizes (log2)
system.mem_ctrls.readPktSize::3                     0                       # Read request sizes (log2)
system.mem_ctrls.readPktSize::4                     0                       # Read request sizes (log2)
system.mem_ctrls.readPktSize::5                     0                       # Read request sizes (log2)
system.mem_ctrls.readPktSize::6                183112                       # Read request sizes (log2)
system.mem_ctrls.writePktSize::0                    0                       # Write request sizes (log2)
system.mem_ctrls.writePktSize::1                    0                       # Write request sizes (log2)
system.mem_ctrls.writePktSize::2                    0                       # Write request sizes (log2)
system.mem_ctrls.writePktSize::3                    0                       # Write request sizes (log2)
system.mem_ctrls.writePktSize::4                    0                       # Write request sizes (log2)
system.mem_ctrls.writePktSize::5                    0                       # Write request sizes (log2)
system.mem_ctrls.writePktSize::6                  308                       # Write request sizes (log2)
system.mem_ctrls.rdQLenPdf::0                  142816                       # What read queue length does an incoming req see
system.mem_ctrls.rdQLenPdf::1                   38601                       # What read queue length does an incoming req see
system.mem_ctrls.rdQLenPdf::2                    1619                       # What read queue length does an incoming req see
system.mem_ctrls.rdQLenPdf::3                      31                       # What read queue length does an incoming req see
system.mem_ctrls.rdQLenPdf::4                       0                       # What read queue length does an incoming req see
system.mem_ctrls.rdQLenPdf::5                       0                       # What read queue length does an incoming req see
system.mem_ctrls.rdQLenPdf::6                       0                       # What read queue length does an incoming req see
system.mem_ctrls.rdQLenPdf::7                       0                       # What read queue length does an incoming req see
system.mem_ctrls.rdQLenPdf::8                       0                       # What read queue length does an incoming req see
system.mem_ctrls.rdQLenPdf::9                       0                       # What read queue length does an incoming req see
system.mem_ctrls.rdQLenPdf::10                      0                       # What read queue length does an incoming req see
system.mem_ctrls.rdQLenPdf::11                      0                       # What read queue length does an incoming req see
system.mem_ctrls.rdQLenPdf::12                      0                       # What read queue length does an incoming req see
system.mem_ctrls.rdQLenPdf::13                      0                       # What read queue length does an incoming req see
system.mem_ctrls.rdQLenPdf::14                      0                       # What read queue length does an incoming req see
system.mem_ctrls.rdQLenPdf::15                      0                       # What read queue length does an incoming req see
system.mem_ctrls.rdQLenPdf::16                      0                       # What read queue length does an incoming req see
system.mem_ctrls.rdQLenPdf::17                      0                       # What read queue length does an incoming req see
system.mem_ctrls.rdQLenPdf::18                      0                       # What read queue length does an incoming req see
system.mem_ctrls.rdQLenPdf::19                      0                       # What read queue length does an incoming req see
system.mem_ctrls.rdQLenPdf::20                      0                       # What read queue length does an incoming req see
system.mem_ctrls.rdQLenPdf::21                      0                       # What read queue length does an incoming req see
system.mem_ctrls.rdQLenPdf::22                      0                       # What read queue length does an incoming req see
system.mem_ctrls.rdQLenPdf::23                      0                       # What read queue length does an incoming req see
system.mem_ctrls.rdQLenPdf::24                      0                       # What read queue length does an incoming req see
system.mem_ctrls.rdQLenPdf::25                      0                       # What read queue length does an incoming req see
system.mem_ctrls.rdQLenPdf::26                      0                       # What read queue length does an incoming req see
system.mem_ctrls.rdQLenPdf::27                      0                       # What read queue length does an incoming req see
system.mem_ctrls.rdQLenPdf::28                      0                       # What read queue length does an incoming req see
system.mem_ctrls.rdQLenPdf::29                      0                       # What read queue length does an incoming req see
system.mem_ctrls.rdQLenPdf::30                      0                       # What read queue length does an incoming req see
system.mem_ctrls.rdQLenPdf::31                      0                       # What read queue length does an incoming req see
system.mem_ctrls.wrQLenPdf::0                       0                       # What write queue length does an incoming req see
system.mem_ctrls.wrQLenPdf::1                       0                       # What write queue length does an incoming req see
system.mem_ctrls.wrQLenPdf::2                       0                       # What write queue length does an incoming req see
system.mem_ctrls.wrQLenPdf::3                       0                       # What write queue length does an incoming req see
system.mem_ctrls.wrQLenPdf::4                       0                       # What write queue length does an incoming req see
system.mem_ctrls.wrQLenPdf::5                       0                       # What write queue length does an incoming req see
system.mem_ctrls.wrQLenPdf::6                       0                       # What write queue length does an incoming req see
system.mem_ctrls.wrQLenPdf::7                       0                       # What write queue length does an incoming req see
system.mem_ctrls.wrQLenPdf::8                       0                       # What write queue length does an incoming req see
system.mem_ctrls.wrQLenPdf::9                       0                       # What write queue length does an incoming req see
system.mem_ctrls.wrQLenPdf::10                      0                       # What write queue length does an incoming req see
system.mem_ctrls.wrQLenPdf::11                      0                       # What write queue length does an incoming req see
system.mem_ctrls.wrQLenPdf::12                      0                       # What write queue length does an incoming req see
system.mem_ctrls.wrQLenPdf::13                      0                       # What write queue length does an incoming req see
system.mem_ctrls.wrQLenPdf::14                      0                       # What write queue length does an incoming req see
system.mem_ctrls.wrQLenPdf::15                      0                       # What write queue length does an incoming req see
system.mem_ctrls.wrQLenPdf::16                      0                       # What write queue length does an incoming req see
system.mem_ctrls.wrQLenPdf::17                     19                       # What write queue length does an incoming req see
system.mem_ctrls.wrQLenPdf::18                     19                       # What write queue length does an incoming req see
system.mem_ctrls.wrQLenPdf::19                     19                       # What write queue length does an incoming req see
system.mem_ctrls.wrQLenPdf::20                     20                       # What write queue length does an incoming req see
system.mem_ctrls.wrQLenPdf::21                     20                       # What write queue length does an incoming req see
system.mem_ctrls.wrQLenPdf::22                     20                       # What write queue length does an incoming req see
system.mem_ctrls.wrQLenPdf::23                     20                       # What write queue length does an incoming req see
system.mem_ctrls.wrQLenPdf::24                     19                       # What write queue length does an incoming req see
system.mem_ctrls.wrQLenPdf::25                     19                       # What write queue length does an incoming req see
system.mem_ctrls.wrQLenPdf::26                     19                       # What write queue length does an incoming req see
system.mem_ctrls.wrQLenPdf::27                     19                       # What write queue length does an incoming req see
system.mem_ctrls.wrQLenPdf::28                     19                       # What write queue length does an incoming req see
system.mem_ctrls.wrQLenPdf::29                     19                       # What write queue length does an incoming req see
system.mem_ctrls.wrQLenPdf::30                     19                       # What write queue length does an incoming req see
system.mem_ctrls.wrQLenPdf::31                     19                       # What write queue length does an incoming req see
system.mem_ctrls.wrQLenPdf::32                     19                       # What write queue length does an incoming req see
system.mem_ctrls.wrQLenPdf::33                      0                       # What write queue length does an incoming req see
system.mem_ctrls.wrQLenPdf::34                      0                       # What write queue length does an incoming req see
system.mem_ctrls.wrQLenPdf::35                      0                       # What write queue length does an incoming req see
system.mem_ctrls.wrQLenPdf::36                      0                       # What write queue length does an incoming req see
system.mem_ctrls.wrQLenPdf::37                      0                       # What write queue length does an incoming req see
system.mem_ctrls.wrQLenPdf::38                      0                       # What write queue length does an incoming req see
system.mem_ctrls.wrQLenPdf::39                      0                       # What write queue length does an incoming req see
system.mem_ctrls.wrQLenPdf::40                      0                       # What write queue length does an incoming req see
system.mem_ctrls.wrQLenPdf::41                      0                       # What write queue length does an incoming req see
system.mem_ctrls.wrQLenPdf::42                      0                       # What write queue length does an incoming req see
system.mem_ctrls.wrQLenPdf::43                      0                       # What write queue length does an incoming req see
system.mem_ctrls.wrQLenPdf::44                      0                       # What write queue length does an incoming req see
system.mem_ctrls.wrQLenPdf::45                      0                       # What write queue length does an incoming req see
system.mem_ctrls.wrQLenPdf::46                      0                       # What write queue length does an incoming req see
system.mem_ctrls.wrQLenPdf::47                      0                       # What write queue length does an incoming req see
system.mem_ctrls.wrQLenPdf::48                      0                       # What write queue length does an incoming req see
system.mem_ctrls.wrQLenPdf::49                      0                       # What write queue length does an incoming req see
system.mem_ctrls.wrQLenPdf::50                      0                       # What write queue length does an incoming req see
system.mem_ctrls.wrQLenPdf::51                      0                       # What write queue length does an incoming req see
system.mem_ctrls.wrQLenPdf::52                      0                       # What write queue length does an incoming req see
system.mem_ctrls.wrQLenPdf::53                      0                       # What write queue length does an incoming req see
system.mem_ctrls.wrQLenPdf::54                      0                       # What write queue length does an incoming req see
system.mem_ctrls.wrQLenPdf::55                      0                       # What write queue length does an incoming req see
system.mem_ctrls.wrQLenPdf::56                      0                       # What write queue length does an incoming req see
system.mem_ctrls.wrQLenPdf::57                      0                       # What write queue length does an incoming req see
system.mem_ctrls.wrQLenPdf::58                      0                       # What write queue length does an incoming req see
system.mem_ctrls.wrQLenPdf::59                      0                       # What write queue length does an incoming req see
system.mem_ctrls.wrQLenPdf::60                      0                       # What write queue length does an incoming req see
system.mem_ctrls.wrQLenPdf::61                      0                       # What write queue length does an incoming req see
system.mem_ctrls.wrQLenPdf::62                      0                       # What write queue length does an incoming req see
system.mem_ctrls.wrQLenPdf::63                      0                       # What write queue length does an incoming req see
system.mem_ctrls.bytesPerActivate::samples        95646                       # Bytes accessed per row activation
system.mem_ctrls.bytesPerActivate::mean    122.695774                       # Bytes accessed per row activation
system.mem_ctrls.bytesPerActivate::gmean   105.873318                       # Bytes accessed per row activation
system.mem_ctrls.bytesPerActivate::stdev    73.152207                       # Bytes accessed per row activation
system.mem_ctrls.bytesPerActivate::0-127        44643     46.68%     46.68% # Bytes accessed per row activation
system.mem_ctrls.bytesPerActivate::128-255        41823     43.73%     90.40% # Bytes accessed per row activation
system.mem_ctrls.bytesPerActivate::256-383         8075      8.44%     98.84% # Bytes accessed per row activation
system.mem_ctrls.bytesPerActivate::384-511         1002      1.05%     99.89% # Bytes accessed per row activation
system.mem_ctrls.bytesPerActivate::512-639           83      0.09%     99.98% # Bytes accessed per row activation
system.mem_ctrls.bytesPerActivate::640-767            6      0.01%     99.99% # Bytes accessed per row activation
system.mem_ctrls.bytesPerActivate::768-895            5      0.01%     99.99% # Bytes accessed per row activation
system.mem_ctrls.bytesPerActivate::896-1023            3      0.00%     99.99% # Bytes accessed per row activation
system.mem_ctrls.bytesPerActivate::1024-1151            6      0.01%    100.00% # Bytes accessed per row activation
system.mem_ctrls.bytesPerActivate::total        95646                       # Bytes accessed per row activation
system.mem_ctrls.rdPerTurnAround::samples           19                       # Reads before turning the bus around for writes
system.mem_ctrls.rdPerTurnAround::mean    9563.684211                       # Reads before turning the bus around for writes
system.mem_ctrls.rdPerTurnAround::gmean   9214.055864                       # Reads before turning the bus around for writes
system.mem_ctrls.rdPerTurnAround::stdev   2471.215289                       # Reads before turning the bus around for writes
system.mem_ctrls.rdPerTurnAround::4608-5119            1      5.26%      5.26% # Reads before turning the bus around for writes
system.mem_ctrls.rdPerTurnAround::5120-5631            1      5.26%     10.53% # Reads before turning the bus around for writes
system.mem_ctrls.rdPerTurnAround::5632-6143            2     10.53%     21.05% # Reads before turning the bus around for writes
system.mem_ctrls.rdPerTurnAround::8192-8703            2     10.53%     31.58% # Reads before turning the bus around for writes
system.mem_ctrls.rdPerTurnAround::9216-9727            3     15.79%     47.37% # Reads before turning the bus around for writes
system.mem_ctrls.rdPerTurnAround::9728-10239            1      5.26%     52.63% # Reads before turning the bus around for writes
system.mem_ctrls.rdPerTurnAround::10240-10751            3     15.79%     68.42% # Reads before turning the bus around for writes
system.mem_ctrls.rdPerTurnAround::10752-11263            2     10.53%     78.95% # Reads before turning the bus around for writes
system.mem_ctrls.rdPerTurnAround::11264-11775            1      5.26%     84.21% # Reads before turning the bus around for writes
system.mem_ctrls.rdPerTurnAround::11776-12287            1      5.26%     89.47% # Reads before turning the bus around for writes
system.mem_ctrls.rdPerTurnAround::12288-12799            1      5.26%     94.74% # Reads before turning the bus around for writes
system.mem_ctrls.rdPerTurnAround::13824-14335            1      5.26%    100.00% # Reads before turning the bus around for writes
system.mem_ctrls.rdPerTurnAround::total            19                       # Reads before turning the bus around for writes
system.mem_ctrls.wrPerTurnAround::samples           19                       # Writes before turning the bus around for reads
system.mem_ctrls.wrPerTurnAround::mean             16                       # Writes before turning the bus around for reads
system.mem_ctrls.wrPerTurnAround::gmean     16.000000                       # Writes before turning the bus around for reads
system.mem_ctrls.wrPerTurnAround::16               19    100.00%    100.00% # Writes before turning the bus around for reads
system.mem_ctrls.wrPerTurnAround::total            19                       # Writes before turning the bus around for reads
system.mem_ctrls.totQLat                   4563674500                       # Total ticks spent queuing
system.mem_ctrls.totMemAccLat              7996180750                       # Total ticks spent from burst creation until serviced by the DRAM
system.mem_ctrls.totBusLat                  915335000                       # Total ticks spent in databus transfers
system.mem_ctrls.avgQLat                     24928.99                       # Average queueing delay per DRAM burst
system.mem_ctrls.avgBusLat                    5000.00                       # Average bus latency per DRAM burst
system.mem_ctrls.avgMemAccLat                43678.99                       # Average memory access latency per DRAM burst
system.mem_ctrls.avgRdBW                       767.41                       # Average DRAM read bandwidth in MiByte/s
system.mem_ctrls.avgWrBW                         1.27                       # Average achieved write bandwidth in MiByte/s
system.mem_ctrls.avgRdBWSys                    767.60                       # Average system read bandwidth in MiByte/s
system.mem_ctrls.avgWrBWSys                      1.29                       # Average system write bandwidth in MiByte/s
system.mem_ctrls.peakBW                      12800.00                       # Theoretical peak bandwidth in MiByte/s
system.mem_ctrls.busUtil                         6.01                       # Data bus utilization in percentage
system.mem_ctrls.busUtilRead                     6.00                       # Data bus utilization in percentage for reads
system.mem_ctrls.busUtilWrite                    0.01                       # Data bus utilization in percentage for writes
system.mem_ctrls.avgRdQLen                       1.28                       # Average read queue length when enqueuing
system.mem_ctrls.avgWrQLen                      25.68                       # Average write queue length when enqueuing
system.mem_ctrls.readRowHits                    87459                       # Number of row buffer hits during reads
system.mem_ctrls.writeRowHits                     267                       # Number of row buffer hits during writes
system.mem_ctrls.readRowHitRate                 47.77                       # Row buffer hit rate for reads
system.mem_ctrls.writeRowHitRate                86.69                       # Row buffer hit rate for writes
system.mem_ctrls.avgGap                      83236.94                       # Average gap between requests
system.mem_ctrls.pageHitRate                    47.84                       # Row buffer hit rate, read and write combined
system.mem_ctrls_0.actEnergy                340813620                       # Energy for activate commands per rank (pJ)
system.mem_ctrls_0.preEnergy                181150530                       # Energy for precharge commands per rank (pJ)
system.mem_ctrls_0.readEnergy               649975620                       # Energy for read commands per rank (pJ)
system.mem_ctrls_0.writeEnergy                  52200                       # Energy for write commands per rank (pJ)
system.mem_ctrls_0.refreshEnergy         1206538320.000000                       # Energy for refresh commands per rank (pJ)
system.mem_ctrls_0.actBackEnergy           1574325180                       # Energy for active background per rank (pJ)
system.mem_ctrls_0.preBackEnergy             25375680                       # Energy for precharge background per rank (pJ)
system.mem_ctrls_0.actPowerDownEnergy      5148889800                       # Energy for active power-down per rank (pJ)
system.mem_ctrls_0.prePowerDownEnergy       155318400                       # Energy for precharge power-down per rank (pJ)
system.mem_ctrls_0.selfRefreshEnergy         18216900                       # Energy for self refresh per rank (pJ)
system.mem_ctrls_0.totalEnergy             9300656250                       # Total energy per rank (pJ)
system.mem_ctrls_0.averagePower            609.186259                       # Core power per rank (mW)
system.mem_ctrls_0.totalIdleTime          11748838000                       # Total Idle time Per DRAM Rank
system.mem_ctrls_0.memoryStateTime::IDLE     12204000                       # Time in different power states
system.mem_ctrls_0.memoryStateTime::REF     510440000                       # Time in different power states
system.mem_ctrls_0.memoryStateTime::SREF     52893000                       # Time in different power states
system.mem_ctrls_0.memoryStateTime::PRE_PDN    404526750                       # Time in different power states
system.mem_ctrls_0.memoryStateTime::ACT    2995862125                       # Time in different power states
system.mem_ctrls_0.memoryStateTime::ACT_PDN  11291418250                       # Time in different power states
system.mem_ctrls_1.actEnergy                342091680                       # Energy for activate commands per rank (pJ)
system.mem_ctrls_1.preEnergy                181826040                       # Energy for precharge commands per rank (pJ)
system.mem_ctrls_1.readEnergy               657129900                       # Energy for read commands per rank (pJ)
system.mem_ctrls_1.writeEnergy                1534680                       # Energy for write commands per rank (pJ)
system.mem_ctrls_1.refreshEnergy         1207767600.000000                       # Energy for refresh commands per rank (pJ)
system.mem_ctrls_1.actBackEnergy           1584519060                       # Energy for active background per rank (pJ)
system.mem_ctrls_1.preBackEnergy             25692000                       # Energy for precharge background per rank (pJ)
system.mem_ctrls_1.actPowerDownEnergy      5133295740                       # Energy for active power-down per rank (pJ)
system.mem_ctrls_1.prePowerDownEnergy       157466400                       # Energy for precharge power-down per rank (pJ)
system.mem_ctrls_1.selfRefreshEnergy         21175620                       # Energy for self refresh per rank (pJ)
system.mem_ctrls_1.totalEnergy             9312577530                       # Total energy per rank (pJ)
system.mem_ctrls_1.averagePower            609.967094                       # Core power per rank (mW)
system.mem_ctrls_1.totalIdleTime          11724293500                       # Total Idle time Per DRAM Rank
system.mem_ctrls_1.memoryStateTime::IDLE     13033500                       # Time in different power states
system.mem_ctrls_1.memoryStateTime::REF     510984000                       # Time in different power states
system.mem_ctrls_1.memoryStateTime::SREF     58141250                       # Time in different power states
system.mem_ctrls_1.memoryStateTime::PRE_PDN    409894250                       # Time in different power states
system.mem_ctrls_1.memoryStateTime::ACT    3018628500                       # Time in different power states
system.mem_ctrls_1.memoryStateTime::ACT_PDN  11256662625                       # Time in different power states
system.pwrStateResidencyTicks::UNDEFINED  15267344125                       # Cumulative time (in ticks) in various power states
system.cpu0.branchPred.lookups                1123155                       # Number of BP lookups
system.cpu0.branchPred.condPredicted          1123155                       # Number of conditional branches predicted
system.cpu0.branchPred.condIncorrect            35353                       # Number of conditional branches incorrect
system.cpu0.branchPred.BTBLookups              814273                       # Number of BTB lookups
system.cpu0.branchPred.BTBHits                      0                       # Number of BTB hits
system.cpu0.branchPred.BTBCorrect                   0                       # Number of correct BTB predictions (this stat may not work properly.
system.cpu0.branchPred.BTBHitPct             0.000000                       # BTB Hit Percentage
system.cpu0.branchPred.usedRAS                  23853                       # Number of times the RAS was used to get a target.
system.cpu0.branchPred.RASInCorrect              3255                       # Number of incorrect RAS predictions.
system.cpu0.branchPred.indirectLookups         814273                       # Number of indirect predictor lookups.
system.cpu0.branchPred.indirectHits            506305                       # Number of indirect target hits.
system.cpu0.branchPred.indirectMisses          307968                       # Number of indirect misses.
system.cpu0.branchPredindirectMispredicted        10112                       # Number of mispredicted indirect branches.
system.cpu_voltage_domain.voltage                   1                       # Voltage in Volts
system.cpu_clk_domain.clock                       500                       # Clock period in ticks
system.cpu0.dtb.walker.pwrStateResidencyTicks::UNDEFINED  15267344125                       # Cumulative time (in ticks) in various power states
system.cpu0.dtb.rdAccesses                     629457                       # TLB accesses on read requests
system.cpu0.dtb.wrAccesses                      37331                       # TLB accesses on write requests
system.cpu0.dtb.rdMisses                       169741                       # TLB misses on read requests
system.cpu0.dtb.wrMisses                          553                       # TLB misses on write requests
system.cpu0.apic_clk_domain.clock                8000                       # Clock period in ticks
system.cpu0.interrupts.pwrStateResidencyTicks::UNDEFINED  15267344125                       # Cumulative time (in ticks) in various power states
system.cpu0.itb.walker.pwrStateResidencyTicks::UNDEFINED  15267344125                       # Cumulative time (in ticks) in various power states
system.cpu0.itb.rdAccesses                          0                       # TLB accesses on read requests
system.cpu0.itb.wrAccesses                     998155                       # TLB accesses on write requests
system.cpu0.itb.rdMisses                            0                       # TLB misses on read requests
system.cpu0.itb.wrMisses                         1805                       # TLB misses on write requests
system.cpu0.workload.numSyscalls                    0                       # Number of system calls
system.cpu0.pwrStateResidencyTicks::ON    15267344125                       # Cumulative time (in ticks) in various power states
system.cpu0.numCycles                        30534688                       # number of cpu cycles simulated
system.cpu0.numWorkItemsStarted                     0                       # number of work items this cpu started
system.cpu0.numWorkItemsCompleted                   0                       # number of work items this cpu completed
system.cpu0.fetch.icacheStallCycles           1013956                       # Number of cycles fetch is stalled on an Icache miss
system.cpu0.fetch.Insts                       3197127                       # Number of instructions fetch has processed
system.cpu0.fetch.Branches                    1123155                       # Number of branches that fetch encountered
system.cpu0.fetch.predictedBranches            530158                       # Number of branches that fetch has predicted taken
system.cpu0.fetch.Cycles                     29437051                       # Number of cycles fetch has run and was not squashing or blocked
system.cpu0.fetch.SquashCycles                  71896                       # Number of cycles fetch has spent squashing
system.cpu0.fetch.TlbCycles                       919                       # Number of cycles fetch has spent waiting for tlb
system.cpu0.fetch.MiscStallCycles                 386                       # Number of cycles fetch has spent waiting on interrupts, or bad addresses, or out of MSHRs
system.cpu0.fetch.PendingTrapStallCycles        18079                       # Number of stall cycles due to pending traps
system.cpu0.fetch.PendingQuiesceStallCycles            3                       # Number of stall cycles due to pending quiesce instructions
system.cpu0.fetch.CacheLines                   996350                       # Number of cache lines fetched
system.cpu0.fetch.IcacheSquashes                 3956                       # Number of outstanding Icache misses that were squashed
system.cpu0.fetch.rateDist::samples          30506342                       # Number of instructions fetched each cycle (Total)
system.cpu0.fetch.rateDist::mean             0.210347                       # Number of instructions fetched each cycle (Total)
system.cpu0.fetch.rateDist::stdev            1.145709                       # Number of instructions fetched each cycle (Total)
system.cpu0.fetch.rateDist::underflows              0      0.00%      0.00% # Number of instructions fetched each cycle (Total)
system.cpu0.fetch.rateDist::0                29201654     95.72%     95.72% # Number of instructions fetched each cycle (Total)
system.cpu0.fetch.rateDist::1                    9552      0.03%     95.75% # Number of instructions fetched each cycle (Total)
system.cpu0.fetch.rateDist::2                  527594      1.73%     97.48% # Number of instructions fetched each cycle (Total)
system.cpu0.fetch.rateDist::3                   17931      0.06%     97.54% # Number of instructions fetched each cycle (Total)
system.cpu0.fetch.rateDist::4                  103627      0.34%     97.88% # Number of instructions fetched each cycle (Total)
system.cpu0.fetch.rateDist::5                   33483      0.11%     97.99% # Number of instructions fetched each cycle (Total)
system.cpu0.fetch.rateDist::6                   85352      0.28%     98.27% # Number of instructions fetched each cycle (Total)
system.cpu0.fetch.rateDist::7                   12847      0.04%     98.31% # Number of instructions fetched each cycle (Total)
system.cpu0.fetch.rateDist::8                  514302      1.69%    100.00% # Number of instructions fetched each cycle (Total)
system.cpu0.fetch.rateDist::overflows               0      0.00%    100.00% # Number of instructions fetched each cycle (Total)
system.cpu0.fetch.rateDist::min_value               0                       # Number of instructions fetched each cycle (Total)
system.cpu0.fetch.rateDist::max_value               8                       # Number of instructions fetched each cycle (Total)
system.cpu0.fetch.rateDist::total            30506342                       # Number of instructions fetched each cycle (Total)
system.cpu0.fetch.branchRate                 0.036783                       # Number of branch fetches per cycle
system.cpu0.fetch.rate                       0.104705                       # Number of inst fetches per cycle
system.cpu0.decode.IdleCycles                  438917                       # Number of cycles decode is idle
system.cpu0.decode.BlockedCycles             29212666                       # Number of cycles decode is blocked
system.cpu0.decode.RunCycles                   511137                       # Number of cycles decode is running
system.cpu0.decode.UnblockCycles               307674                       # Number of cycles decode is unblocking
system.cpu0.decode.SquashCycles                 35948                       # Number of cycles decode is squashing
system.cpu0.decode.DecodedInsts               5493399                       # Number of instructions handled by decode
system.cpu0.rename.SquashCycles                 35948                       # Number of cycles rename is squashing
system.cpu0.rename.IdleCycles                  526449                       # Number of cycles rename is idle
system.cpu0.rename.BlockCycles               27963446                       # Number of cycles rename is blocking
system.cpu0.rename.serializeStallCycles          6091                       # count of cycles rename stalled for serializing inst
system.cpu0.rename.RunCycles                   659418                       # Number of cycles rename is running
system.cpu0.rename.UnblockCycles              1314990                       # Number of cycles rename is unblocking
system.cpu0.rename.RenamedInsts               5323860                       # Number of instructions processed by rename
system.cpu0.rename.ROBFullEvents                35150                       # Number of times rename has blocked due to ROB full
system.cpu0.rename.IQFullEvents               1150452                       # Number of times rename has blocked due to IQ full
system.cpu0.rename.LQFullEvents                100774                       # Number of times rename has blocked due to LQ full
system.cpu0.rename.SQFullEvents                  4393                       # Number of times rename has blocked due to SQ full
system.cpu0.rename.RenamedOperands            6379553                       # Number of destination operands rename has renamed
system.cpu0.rename.RenameLookups             14973118                       # Number of register rename lookups that rename has made
system.cpu0.rename.int_rename_lookups         6892002                       # Number of integer rename lookups
system.cpu0.rename.fp_rename_lookups            32296                       # Number of floating rename lookups
system.cpu0.rename.CommittedMaps              3199531                       # Number of HB maps that are committed
system.cpu0.rename.UndoneMaps                 3180023                       # Number of HB maps that are undone due to squashing
system.cpu0.rename.serializingInsts               130                       # count of serializing insts renamed
system.cpu0.rename.tempSerializingInsts           164                       # count of temporary serializing insts renamed
system.cpu0.rename.skidInsts                  2033659                       # count of insts added to the skid buffer
system.cpu0.memDep0.insertedLoads              965247                       # Number of loads inserted to the mem dependence unit.
system.cpu0.memDep0.insertedStores              51678                       # Number of stores inserted to the mem dependence unit.
system.cpu0.memDep0.conflictingLoads             3605                       # Number of conflicting loads.
system.cpu0.memDep0.conflictingStores            3023                       # Number of conflicting stores.
system.cpu0.iq.iqInstsAdded                   5129086                       # Number of instructions added to the IQ (excludes non-spec)
system.cpu0.iq.iqNonSpecInstsAdded               2835                       # Number of non-speculative instructions added to the IQ
system.cpu0.iq.iqInstsIssued                  3965309                       # Number of instructions issued
system.cpu0.iq.iqSquashedInstsIssued             5078                       # Number of squashed instructions issued
system.cpu0.iq.iqSquashedInstsExamined        2475179                       # Number of squashed instructions iterated over during squash; mainly for profiling
system.cpu0.iq.iqSquashedOperandsExamined      5340736                       # Number of squashed operands that are examined and possibly removed from graph
system.cpu0.iq.iqSquashedNonSpecRemoved          2835                       # Number of squashed non-spec instructions that were removed
system.cpu0.iq.issued_per_cycle::samples     30506342                       # Number of insts issued each cycle
system.cpu0.iq.issued_per_cycle::mean        0.129983                       # Number of insts issued each cycle
system.cpu0.iq.issued_per_cycle::stdev       0.624690                       # Number of insts issued each cycle
system.cpu0.iq.issued_per_cycle::underflows            0      0.00%      0.00% # Number of insts issued each cycle
system.cpu0.iq.issued_per_cycle::0           28671722     93.99%     93.99% # Number of insts issued each cycle
system.cpu0.iq.issued_per_cycle::1             837475      2.75%     96.73% # Number of insts issued each cycle
system.cpu0.iq.issued_per_cycle::2             413041      1.35%     98.09% # Number of insts issued each cycle
system.cpu0.iq.issued_per_cycle::3             278218      0.91%     99.00% # Number of insts issued each cycle
system.cpu0.iq.issued_per_cycle::4             178581      0.59%     99.58% # Number of insts issued each cycle
system.cpu0.iq.issued_per_cycle::5              52519      0.17%     99.75% # Number of insts issued each cycle
system.cpu0.iq.issued_per_cycle::6              45808      0.15%     99.91% # Number of insts issued each cycle
system.cpu0.iq.issued_per_cycle::7              16493      0.05%     99.96% # Number of insts issued each cycle
system.cpu0.iq.issued_per_cycle::8              12485      0.04%    100.00% # Number of insts issued each cycle
system.cpu0.iq.issued_per_cycle::overflows            0      0.00%    100.00% # Number of insts issued each cycle
system.cpu0.iq.issued_per_cycle::min_value            0                       # Number of insts issued each cycle
system.cpu0.iq.issued_per_cycle::max_value            8                       # Number of insts issued each cycle
system.cpu0.iq.issued_per_cycle::total       30506342                       # Number of insts issued each cycle
system.cpu0.iq.fu_full::No_OpClass                  0      0.00%      0.00% # attempts to use FU when none available
system.cpu0.iq.fu_full::IntAlu                   8611     70.62%     70.62% # attempts to use FU when none available
system.cpu0.iq.fu_full::IntMult                     0      0.00%     70.62% # attempts to use FU when none available
system.cpu0.iq.fu_full::IntDiv                      0      0.00%     70.62% # attempts to use FU when none available
system.cpu0.iq.fu_full::FloatAdd                  812      6.66%     77.28% # attempts to use FU when none available
system.cpu0.iq.fu_full::FloatCmp                    0      0.00%     77.28% # attempts to use FU when none available
system.cpu0.iq.fu_full::FloatCvt                    0      0.00%     77.28% # attempts to use FU when none available
system.cpu0.iq.fu_full::FloatMult                   0      0.00%     77.28% # attempts to use FU when none available
system.cpu0.iq.fu_full::FloatMultAcc                0      0.00%     77.28% # attempts to use FU when none available
system.cpu0.iq.fu_full::FloatDiv                    0      0.00%     77.28% # attempts to use FU when none available
system.cpu0.iq.fu_full::FloatMisc                   0      0.00%     77.28% # attempts to use FU when none available
system.cpu0.iq.fu_full::FloatSqrt                   0      0.00%     77.28% # attempts to use FU when none available
system.cpu0.iq.fu_full::SimdAdd                     0      0.00%     77.28% # attempts to use FU when none available
system.cpu0.iq.fu_full::SimdAddAcc                  0      0.00%     77.28% # attempts to use FU when none available
system.cpu0.iq.fu_full::SimdAlu                     0      0.00%     77.28% # attempts to use FU when none available
system.cpu0.iq.fu_full::SimdCmp                     0      0.00%     77.28% # attempts to use FU when none available
system.cpu0.iq.fu_full::SimdCvt                     0      0.00%     77.28% # attempts to use FU when none available
system.cpu0.iq.fu_full::SimdMisc                    0      0.00%     77.28% # attempts to use FU when none available
system.cpu0.iq.fu_full::SimdMult                    0      0.00%     77.28% # attempts to use FU when none available
system.cpu0.iq.fu_full::SimdMultAcc                 0      0.00%     77.28% # attempts to use FU when none available
system.cpu0.iq.fu_full::SimdShift                   0      0.00%     77.28% # attempts to use FU when none available
system.cpu0.iq.fu_full::SimdShiftAcc                0      0.00%     77.28% # attempts to use FU when none available
system.cpu0.iq.fu_full::SimdSqrt                    0      0.00%     77.28% # attempts to use FU when none available
system.cpu0.iq.fu_full::SimdFloatAdd                0      0.00%     77.28% # attempts to use FU when none available
system.cpu0.iq.fu_full::SimdFloatAlu                0      0.00%     77.28% # attempts to use FU when none available
system.cpu0.iq.fu_full::SimdFloatCmp                0      0.00%     77.28% # attempts to use FU when none available
system.cpu0.iq.fu_full::SimdFloatCvt                0      0.00%     77.28% # attempts to use FU when none available
system.cpu0.iq.fu_full::SimdFloatDiv                0      0.00%     77.28% # attempts to use FU when none available
system.cpu0.iq.fu_full::SimdFloatMisc               0      0.00%     77.28% # attempts to use FU when none available
system.cpu0.iq.fu_full::SimdFloatMult               0      0.00%     77.28% # attempts to use FU when none available
system.cpu0.iq.fu_full::SimdFloatMultAcc            0      0.00%     77.28% # attempts to use FU when none available
system.cpu0.iq.fu_full::SimdFloatSqrt               0      0.00%     77.28% # attempts to use FU when none available
system.cpu0.iq.fu_full::MemRead                  2352     19.29%     96.56% # attempts to use FU when none available
system.cpu0.iq.fu_full::MemWrite                  193      1.58%     98.15% # attempts to use FU when none available
system.cpu0.iq.fu_full::FloatMemRead              204      1.67%     99.82% # attempts to use FU when none available
system.cpu0.iq.fu_full::FloatMemWrite              22      0.18%    100.00% # attempts to use FU when none available
system.cpu0.iq.fu_full::IprAccess                   0      0.00%    100.00% # attempts to use FU when none available
system.cpu0.iq.fu_full::InstPrefetch                0      0.00%    100.00% # attempts to use FU when none available
system.cpu0.iq.FU_type_0::No_OpClass             9132      0.23%      0.23% # Type of FU issued
system.cpu0.iq.FU_type_0::IntAlu              3248881     81.93%     82.16% # Type of FU issued
system.cpu0.iq.FU_type_0::IntMult                 818      0.02%     82.18% # Type of FU issued
system.cpu0.iq.FU_type_0::IntDiv                 8236      0.21%     82.39% # Type of FU issued
system.cpu0.iq.FU_type_0::FloatAdd              11075      0.28%     82.67% # Type of FU issued
system.cpu0.iq.FU_type_0::FloatCmp                  0      0.00%     82.67% # Type of FU issued
system.cpu0.iq.FU_type_0::FloatCvt                  0      0.00%     82.67% # Type of FU issued
system.cpu0.iq.FU_type_0::FloatMult                 0      0.00%     82.67% # Type of FU issued
system.cpu0.iq.FU_type_0::FloatMultAcc              0      0.00%     82.67% # Type of FU issued
system.cpu0.iq.FU_type_0::FloatDiv                  0      0.00%     82.67% # Type of FU issued
system.cpu0.iq.FU_type_0::FloatMisc                 0      0.00%     82.67% # Type of FU issued
system.cpu0.iq.FU_type_0::FloatSqrt                 0      0.00%     82.67% # Type of FU issued
system.cpu0.iq.FU_type_0::SimdAdd                   0      0.00%     82.67% # Type of FU issued
system.cpu0.iq.FU_type_0::SimdAddAcc                0      0.00%     82.67% # Type of FU issued
system.cpu0.iq.FU_type_0::SimdAlu                   0      0.00%     82.67% # Type of FU issued
system.cpu0.iq.FU_type_0::SimdCmp                   0      0.00%     82.67% # Type of FU issued
system.cpu0.iq.FU_type_0::SimdCvt                   0      0.00%     82.67% # Type of FU issued
system.cpu0.iq.FU_type_0::SimdMisc                  0      0.00%     82.67% # Type of FU issued
system.cpu0.iq.FU_type_0::SimdMult                  0      0.00%     82.67% # Type of FU issued
system.cpu0.iq.FU_type_0::SimdMultAcc               0      0.00%     82.67% # Type of FU issued
system.cpu0.iq.FU_type_0::SimdShift                 0      0.00%     82.67% # Type of FU issued
system.cpu0.iq.FU_type_0::SimdShiftAcc              0      0.00%     82.67% # Type of FU issued
system.cpu0.iq.FU_type_0::SimdSqrt                  0      0.00%     82.67% # Type of FU issued
system.cpu0.iq.FU_type_0::SimdFloatAdd              0      0.00%     82.67% # Type of FU issued
system.cpu0.iq.FU_type_0::SimdFloatAlu              0      0.00%     82.67% # Type of FU issued
system.cpu0.iq.FU_type_0::SimdFloatCmp              0      0.00%     82.67% # Type of FU issued
system.cpu0.iq.FU_type_0::SimdFloatCvt              0      0.00%     82.67% # Type of FU issued
system.cpu0.iq.FU_type_0::SimdFloatDiv              0      0.00%     82.67% # Type of FU issued
system.cpu0.iq.FU_type_0::SimdFloatMisc             0      0.00%     82.67% # Type of FU issued
system.cpu0.iq.FU_type_0::SimdFloatMult             0      0.00%     82.67% # Type of FU issued
system.cpu0.iq.FU_type_0::SimdFloatMultAcc            0      0.00%     82.67% # Type of FU issued
system.cpu0.iq.FU_type_0::SimdFloatSqrt             0      0.00%     82.67% # Type of FU issued
system.cpu0.iq.FU_type_0::MemRead              644553     16.25%     98.93% # Type of FU issued
system.cpu0.iq.FU_type_0::MemWrite              39680      1.00%     99.93% # Type of FU issued
system.cpu0.iq.FU_type_0::FloatMemRead           2881      0.07%    100.00% # Type of FU issued
system.cpu0.iq.FU_type_0::FloatMemWrite            53      0.00%    100.00% # Type of FU issued
system.cpu0.iq.FU_type_0::IprAccess                 0      0.00%    100.00% # Type of FU issued
system.cpu0.iq.FU_type_0::InstPrefetch              0      0.00%    100.00% # Type of FU issued
system.cpu0.iq.FU_type_0::total               3965309                       # Type of FU issued
system.cpu0.iq.rate                          0.129862                       # Inst issue rate
system.cpu0.iq.fu_busy_cnt                      12194                       # FU busy when requested
system.cpu0.iq.fu_busy_rate                  0.003075                       # FU busy rate (busy events/executed inst)
system.cpu0.iq.int_inst_queue_reads          38424973                       # Number of integer instruction queue reads
system.cpu0.iq.int_inst_queue_writes          7578525                       # Number of integer instruction queue writes
system.cpu0.iq.int_inst_queue_wakeup_accesses      3852760                       # Number of integer instruction queue wakeup accesses
system.cpu0.iq.fp_inst_queue_reads              29259                       # Number of floating instruction queue reads
system.cpu0.iq.fp_inst_queue_writes             28578                       # Number of floating instruction queue writes
system.cpu0.iq.fp_inst_queue_wakeup_accesses        12350                       # Number of floating instruction queue wakeup accesses
system.cpu0.iq.vec_inst_queue_reads                 0                       # Number of vector instruction queue reads
system.cpu0.iq.vec_inst_queue_writes                0                       # Number of vector instruction queue writes
system.cpu0.iq.vec_inst_queue_wakeup_accesses            0                       # Number of vector instruction queue wakeup accesses
system.cpu0.iq.int_alu_accesses               3953323                       # Number of integer alu accesses
system.cpu0.iq.fp_alu_accesses                  15048                       # Number of floating point alu accesses
system.cpu0.iq.vec_alu_accesses                     0                       # Number of vector alu accesses
system.cpu0.iew.lsq.thread0.forwLoads            4216                       # Number of loads that had data forwarded from stores
system.cpu0.iew.lsq.thread0.invAddrLoads            0                       # Number of loads ignored due to an invalid address
system.cpu0.iew.lsq.thread0.squashedLoads       465751                       # Number of loads squashed
system.cpu0.iew.lsq.thread0.ignoredResponses           77                       # Number of memory responses ignored because the instruction is squashed
system.cpu0.iew.lsq.thread0.memOrderViolation            4                       # Number of memory ordering violations
system.cpu0.iew.lsq.thread0.squashedStores        27910                       # Number of stores squashed
system.cpu0.iew.lsq.thread0.invAddrSwpfs            0                       # Number of software prefetches ignored due to an invalid address
system.cpu0.iew.lsq.thread0.blockedLoads            0                       # Number of blocked loads due to partial load-store forwarding
system.cpu0.iew.lsq.thread0.rescheduledLoads           34                       # Number of loads that were rescheduled
system.cpu0.iew.lsq.thread0.cacheBlocked         1745                       # Number of times an access to memory failed due to the cache being blocked
system.cpu0.iew.iewIdleCycles                       0                       # Number of cycles IEW is idle
system.cpu0.iew.iewSquashCycles                 35948                       # Number of cycles IEW is squashing
system.cpu0.iew.iewBlockCycles               26568302                       # Number of cycles IEW is blocking
system.cpu0.iew.iewUnblockCycles               254065                       # Number of cycles IEW is unblocking
system.cpu0.iew.iewDispatchedInsts            5131921                       # Number of instructions dispatched to IQ
system.cpu0.iew.iewDispSquashedInsts             1800                       # Number of squashed instructions skipped by dispatch
system.cpu0.iew.iewDispLoadInsts               965247                       # Number of dispatched load instructions
system.cpu0.iew.iewDispStoreInsts               51678                       # Number of dispatched store instructions
system.cpu0.iew.iewDispNonSpecInsts              1031                       # Number of dispatched non-speculative instructions
system.cpu0.iew.iewIQFullEvents                  9997                       # Number of times the IQ has become full, causing a stall
system.cpu0.iew.iewLSQFullEvents                20209                       # Number of times the LSQ has become full, causing a stall
system.cpu0.iew.memOrderViolationEvents             4                       # Number of memory order violations
system.cpu0.iew.predictedTakenIncorrect         21218                       # Number of branches that were predicted taken incorrectly
system.cpu0.iew.predictedNotTakenIncorrect        18721                       # Number of branches that were predicted not taken incorrectly
system.cpu0.iew.branchMispredicts               39939                       # Number of branch mispredicts detected at execute
system.cpu0.iew.iewExecutedInsts              3920059                       # Number of executed instructions
system.cpu0.iew.iewExecLoadInsts               629272                       # Number of load instructions executed
system.cpu0.iew.iewExecSquashedInsts            45250                       # Number of squashed instructions skipped in execute
system.cpu0.iew.exec_swp                            0                       # number of swp insts executed
system.cpu0.iew.exec_nop                            0                       # number of nop insts executed
system.cpu0.iew.exec_refs                      666599                       # number of memory reference insts executed
system.cpu0.iew.exec_branches                  546009                       # Number of branches executed
system.cpu0.iew.exec_stores                     37327                       # Number of stores executed
system.cpu0.iew.exec_rate                    0.128381                       # Inst execution rate
system.cpu0.iew.wb_sent                       3873261                       # cumulative count of insts sent to commit
system.cpu0.iew.wb_count                      3865110                       # cumulative count of insts written-back
system.cpu0.iew.wb_producers                  2655576                       # num instructions producing a value
system.cpu0.iew.wb_consumers                  4529133                       # num instructions consuming a value
system.cpu0.iew.wb_rate                      0.126581                       # insts written-back per cycle
system.cpu0.iew.wb_fanout                    0.586332                       # average fanout of values written-back
system.cpu0.commit.commitSquashedInsts        2475335                       # The number of squashed insts skipped by commit
system.cpu0.commit.branchMispredicts            35947                       # The number of times a branch was mispredicted
system.cpu0.commit.committed_per_cycle::samples     30165424                       # Number of insts commited each cycle
system.cpu0.commit.committed_per_cycle::mean     0.088072                       # Number of insts commited each cycle
system.cpu0.commit.committed_per_cycle::stdev     0.530502                       # Number of insts commited each cycle
system.cpu0.commit.committed_per_cycle::underflows            0      0.00%      0.00% # Number of insts commited each cycle
system.cpu0.commit.committed_per_cycle::0     28965691     96.02%     96.02% # Number of insts commited each cycle
system.cpu0.commit.committed_per_cycle::1       550460      1.82%     97.85% # Number of insts commited each cycle
system.cpu0.commit.committed_per_cycle::2       150570      0.50%     98.35% # Number of insts commited each cycle
system.cpu0.commit.committed_per_cycle::3       391874      1.30%     99.65% # Number of insts commited each cycle
system.cpu0.commit.committed_per_cycle::4        36697      0.12%     99.77% # Number of insts commited each cycle
system.cpu0.commit.committed_per_cycle::5        22670      0.08%     99.84% # Number of insts commited each cycle
system.cpu0.commit.committed_per_cycle::6         3574      0.01%     99.85% # Number of insts commited each cycle
system.cpu0.commit.committed_per_cycle::7         3166      0.01%     99.87% # Number of insts commited each cycle
system.cpu0.commit.committed_per_cycle::8        40722      0.13%    100.00% # Number of insts commited each cycle
system.cpu0.commit.committed_per_cycle::overflows            0      0.00%    100.00% # Number of insts commited each cycle
system.cpu0.commit.committed_per_cycle::min_value            0                       # Number of insts commited each cycle
system.cpu0.commit.committed_per_cycle::max_value            8                       # Number of insts commited each cycle
system.cpu0.commit.committed_per_cycle::total     30165424                       # Number of insts commited each cycle
system.cpu0.commit.committedInsts             1331489                       # Number of instructions committed
system.cpu0.commit.committedOps               2656742                       # Number of ops (including micro ops) committed
system.cpu0.commit.swp_count                        0                       # Number of s/w prefetches committed
system.cpu0.commit.refs                        523264                       # Number of memory references committed
system.cpu0.commit.loads                       499496                       # Number of loads committed
system.cpu0.commit.membars                          0                       # Number of memory barriers committed
system.cpu0.commit.branches                    484882                       # Number of branches committed
system.cpu0.commit.vec_insts                        0                       # Number of committed Vector instructions.
system.cpu0.commit.fp_insts                      9966                       # Number of committed floating point instructions.
system.cpu0.commit.int_insts                  2646843                       # Number of committed integer instructions.
system.cpu0.commit.function_calls                4200                       # Number of function calls committed.
system.cpu0.commit.op_class_0::No_OpClass         2993      0.11%      0.11% # Class of committed instruction
system.cpu0.commit.op_class_0::IntAlu         2114445     79.59%     79.70% # Class of committed instruction
system.cpu0.commit.op_class_0::IntMult            168      0.01%     79.71% # Class of committed instruction
system.cpu0.commit.op_class_0::IntDiv            7436      0.28%     79.99% # Class of committed instruction
system.cpu0.commit.op_class_0::FloatAdd          8436      0.32%     80.30% # Class of committed instruction
system.cpu0.commit.op_class_0::FloatCmp             0      0.00%     80.30% # Class of committed instruction
system.cpu0.commit.op_class_0::FloatCvt             0      0.00%     80.30% # Class of committed instruction
system.cpu0.commit.op_class_0::FloatMult            0      0.00%     80.30% # Class of committed instruction
system.cpu0.commit.op_class_0::FloatMultAcc            0      0.00%     80.30% # Class of committed instruction
system.cpu0.commit.op_class_0::FloatDiv             0      0.00%     80.30% # Class of committed instruction
system.cpu0.commit.op_class_0::FloatMisc            0      0.00%     80.30% # Class of committed instruction
system.cpu0.commit.op_class_0::FloatSqrt            0      0.00%     80.30% # Class of committed instruction
system.cpu0.commit.op_class_0::SimdAdd              0      0.00%     80.30% # Class of committed instruction
system.cpu0.commit.op_class_0::SimdAddAcc            0      0.00%     80.30% # Class of committed instruction
system.cpu0.commit.op_class_0::SimdAlu              0      0.00%     80.30% # Class of committed instruction
system.cpu0.commit.op_class_0::SimdCmp              0      0.00%     80.30% # Class of committed instruction
system.cpu0.commit.op_class_0::SimdCvt              0      0.00%     80.30% # Class of committed instruction
system.cpu0.commit.op_class_0::SimdMisc             0      0.00%     80.30% # Class of committed instruction
system.cpu0.commit.op_class_0::SimdMult             0      0.00%     80.30% # Class of committed instruction
system.cpu0.commit.op_class_0::SimdMultAcc            0      0.00%     80.30% # Class of committed instruction
system.cpu0.commit.op_class_0::SimdShift            0      0.00%     80.30% # Class of committed instruction
system.cpu0.commit.op_class_0::SimdShiftAcc            0      0.00%     80.30% # Class of committed instruction
system.cpu0.commit.op_class_0::SimdSqrt             0      0.00%     80.30% # Class of committed instruction
system.cpu0.commit.op_class_0::SimdFloatAdd            0      0.00%     80.30% # Class of committed instruction
system.cpu0.commit.op_class_0::SimdFloatAlu            0      0.00%     80.30% # Class of committed instruction
system.cpu0.commit.op_class_0::SimdFloatCmp            0      0.00%     80.30% # Class of committed instruction
system.cpu0.commit.op_class_0::SimdFloatCvt            0      0.00%     80.30% # Class of committed instruction
system.cpu0.commit.op_class_0::SimdFloatDiv            0      0.00%     80.30% # Class of committed instruction
system.cpu0.commit.op_class_0::SimdFloatMisc            0      0.00%     80.30% # Class of committed instruction
system.cpu0.commit.op_class_0::SimdFloatMult            0      0.00%     80.30% # Class of committed instruction
system.cpu0.commit.op_class_0::SimdFloatMultAcc            0      0.00%     80.30% # Class of committed instruction
system.cpu0.commit.op_class_0::SimdFloatSqrt            0      0.00%     80.30% # Class of committed instruction
system.cpu0.commit.op_class_0::MemRead         497966     18.74%     99.05% # Class of committed instruction
system.cpu0.commit.op_class_0::MemWrite         23768      0.89%     99.94% # Class of committed instruction
system.cpu0.commit.op_class_0::FloatMemRead         1530      0.06%    100.00% # Class of committed instruction
system.cpu0.commit.op_class_0::FloatMemWrite            0      0.00%    100.00% # Class of committed instruction
system.cpu0.commit.op_class_0::IprAccess            0      0.00%    100.00% # Class of committed instruction
system.cpu0.commit.op_class_0::InstPrefetch            0      0.00%    100.00% # Class of committed instruction
system.cpu0.commit.op_class_0::total          2656742                       # Class of committed instruction
system.cpu0.commit.bw_lim_events                40722                       # number cycles where commit BW limit reached
system.cpu0.rob.rob_reads                    35256779                       # The number of ROB reads
system.cpu0.rob.rob_writes                   10605865                       # The number of ROB writes
system.cpu0.timesIdled                            203                       # Number of times that the entire CPU went into an idle state and unscheduled itself
system.cpu0.idleCycles                          28346                       # Total number of cycles that the CPU has spent unscheduled due to idling
system.cpu0.committedInsts                    1331489                       # Number of Instructions Simulated
system.cpu0.committedOps                      2656742                       # Number of Ops (including micro ops) Simulated
system.cpu0.cpi                             22.932738                       # CPI: Cycles Per Instruction
system.cpu0.cpi_total                       22.932738                       # CPI: Total CPI of All Threads
system.cpu0.ipc                              0.043606                       # IPC: Instructions Per Cycle
system.cpu0.ipc_total                        0.043606                       # IPC: Total IPC of All Threads
system.cpu0.int_regfile_reads                 4168843                       # number of integer regfile reads
system.cpu0.int_regfile_writes                3287801                       # number of integer regfile writes
system.cpu0.fp_regfile_reads                    21608                       # number of floating regfile reads
system.cpu0.fp_regfile_writes                   10797                       # number of floating regfile writes
system.cpu0.cc_regfile_reads                  2970305                       # number of cc regfile reads
system.cpu0.cc_regfile_writes                 1205584                       # number of cc regfile writes
system.cpu0.misc_regfile_reads                2113060                       # number of misc regfile reads
system.cpu0.dcache.tags.pwrStateResidencyTicks::UNDEFINED  15267344125                       # Cumulative time (in ticks) in various power states
system.cpu0.dcache.tags.replacements           275685                       # number of replacements
system.cpu0.dcache.tags.tagsinuse                1024                       # Cycle average of tags in use
system.cpu0.dcache.tags.total_refs             180550                       # Total number of references to valid blocks.
system.cpu0.dcache.tags.sampled_refs           275685                       # Sample count of references to valid blocks.
system.cpu0.dcache.tags.avg_refs             0.654914                       # Average number of references to valid blocks.
system.cpu0.dcache.tags.warmup_cycle                0                       # Cycle when the warmup percentage was hit.
system.cpu0.dcache.tags.occ_blocks::cpu0.data         1024                       # Average occupied blocks per requestor
system.cpu0.dcache.tags.occ_percent::cpu0.data            1                       # Average percentage of cache occupancy
system.cpu0.dcache.tags.occ_percent::total            1                       # Average percentage of cache occupancy
system.cpu0.dcache.tags.occ_task_id_blocks::1024         1024                       # Occupied blocks per task id
system.cpu0.dcache.tags.age_task_id_blocks_1024::0          158                       # Occupied blocks per task id
system.cpu0.dcache.tags.age_task_id_blocks_1024::1          866                       # Occupied blocks per task id
system.cpu0.dcache.tags.occ_task_id_percent::1024            1                       # Percentage of cache occupancy per task id
system.cpu0.dcache.tags.tag_accesses          2857617                       # Number of tag accesses
system.cpu0.dcache.tags.data_accesses         2857617                       # Number of data accesses
system.cpu0.dcache.pwrStateResidencyTicks::UNDEFINED  15267344125                       # Cumulative time (in ticks) in various power states
system.cpu0.dcache.ReadReq_hits::cpu0.data       158384                       # number of ReadReq hits
system.cpu0.dcache.ReadReq_hits::total         158384                       # number of ReadReq hits
system.cpu0.dcache.WriteReq_hits::cpu0.data        22811                       # number of WriteReq hits
system.cpu0.dcache.WriteReq_hits::total         22811                       # number of WriteReq hits
system.cpu0.dcache.demand_hits::cpu0.data       181195                       # number of demand (read+write) hits
system.cpu0.dcache.demand_hits::total          181195                       # number of demand (read+write) hits
system.cpu0.dcache.overall_hits::cpu0.data       181195                       # number of overall hits
system.cpu0.dcache.overall_hits::total         181195                       # number of overall hits
system.cpu0.dcache.ReadReq_misses::cpu0.data       463331                       # number of ReadReq misses
system.cpu0.dcache.ReadReq_misses::total       463331                       # number of ReadReq misses
system.cpu0.dcache.WriteReq_misses::cpu0.data          957                       # number of WriteReq misses
system.cpu0.dcache.WriteReq_misses::total          957                       # number of WriteReq misses
system.cpu0.dcache.demand_misses::cpu0.data       464288                       # number of demand (read+write) misses
system.cpu0.dcache.demand_misses::total        464288                       # number of demand (read+write) misses
system.cpu0.dcache.overall_misses::cpu0.data       464288                       # number of overall misses
system.cpu0.dcache.overall_misses::total       464288                       # number of overall misses
system.cpu0.dcache.ReadReq_miss_latency::cpu0.data  32322147500                       # number of ReadReq miss cycles
system.cpu0.dcache.ReadReq_miss_latency::total  32322147500                       # number of ReadReq miss cycles
system.cpu0.dcache.WriteReq_miss_latency::cpu0.data     36630998                       # number of WriteReq miss cycles
system.cpu0.dcache.WriteReq_miss_latency::total     36630998                       # number of WriteReq miss cycles
system.cpu0.dcache.demand_miss_latency::cpu0.data  32358778498                       # number of demand (read+write) miss cycles
system.cpu0.dcache.demand_miss_latency::total  32358778498                       # number of demand (read+write) miss cycles
system.cpu0.dcache.overall_miss_latency::cpu0.data  32358778498                       # number of overall miss cycles
system.cpu0.dcache.overall_miss_latency::total  32358778498                       # number of overall miss cycles
system.cpu0.dcache.ReadReq_accesses::cpu0.data       621715                       # number of ReadReq accesses(hits+misses)
system.cpu0.dcache.ReadReq_accesses::total       621715                       # number of ReadReq accesses(hits+misses)
system.cpu0.dcache.WriteReq_accesses::cpu0.data        23768                       # number of WriteReq accesses(hits+misses)
system.cpu0.dcache.WriteReq_accesses::total        23768                       # number of WriteReq accesses(hits+misses)
system.cpu0.dcache.demand_accesses::cpu0.data       645483                       # number of demand (read+write) accesses
system.cpu0.dcache.demand_accesses::total       645483                       # number of demand (read+write) accesses
system.cpu0.dcache.overall_accesses::cpu0.data       645483                       # number of overall (read+write) accesses
system.cpu0.dcache.overall_accesses::total       645483                       # number of overall (read+write) accesses
system.cpu0.dcache.ReadReq_miss_rate::cpu0.data     0.745247                       # miss rate for ReadReq accesses
system.cpu0.dcache.ReadReq_miss_rate::total     0.745247                       # miss rate for ReadReq accesses
system.cpu0.dcache.WriteReq_miss_rate::cpu0.data     0.040264                       # miss rate for WriteReq accesses
system.cpu0.dcache.WriteReq_miss_rate::total     0.040264                       # miss rate for WriteReq accesses
system.cpu0.dcache.demand_miss_rate::cpu0.data     0.719288                       # miss rate for demand accesses
system.cpu0.dcache.demand_miss_rate::total     0.719288                       # miss rate for demand accesses
system.cpu0.dcache.overall_miss_rate::cpu0.data     0.719288                       # miss rate for overall accesses
[...]
system.l2.ReadExReq_miss_rate::cpu0.data     0.237696                       # miss rate for ReadExReq accesses
system.l2.ReadExReq_miss_rate::total         0.237696                       # miss rate for ReadExReq accesses
system.l2.ReadCleanReq_miss_rate::cpu0.inst            1                       # miss rate for ReadCleanReq accesses
system.l2.ReadCleanReq_miss_rate::total             1                       # miss rate for ReadCleanReq accesses
system.l2.ReadSharedReq_miss_rate::cpu0.data     0.665686                       # miss rate for ReadSharedReq accesses
system.l2.ReadSharedReq_miss_rate::total     0.665686                       # miss rate for ReadSharedReq accesses
system.l2.demand_miss_rate::cpu0.inst               1                       # miss rate for demand accesses
system.l2.demand_miss_rate::cpu0.data        0.664204                       # miss rate for demand accesses
system.l2.demand_miss_rate::total            0.664205                       # miss rate for demand accesses
system.l2.overall_miss_rate::cpu0.inst              1                       # miss rate for overall accesses
system.l2.overall_miss_rate::cpu0.data       0.664204                       # miss rate for overall accesses
system.l2.overall_miss_rate::total           0.664205                       # miss rate for overall accesses
system.l2.ReadExReq_avg_miss_latency::cpu0.data 115905.286344                       # average ReadExReq miss latency
system.l2.ReadExReq_avg_miss_latency::total 115905.286344                       # average ReadExReq miss latency
system.l2.ReadCleanReq_avg_miss_latency::cpu0.inst        93500                       # average ReadCleanReq miss latency
system.l2.ReadCleanReq_avg_miss_latency::total        93500                       # average ReadCleanReq miss latency
system.l2.ReadSharedReq_avg_miss_latency::cpu0.data 95276.932372                       # average ReadSharedReq miss latency
system.l2.ReadSharedReq_avg_miss_latency::total 95276.932372                       # average ReadSharedReq miss latency
system.l2.demand_avg_miss_latency::cpu0.inst        93500                       # average overall miss latency
system.l2.demand_avg_miss_latency::cpu0.data 95302.505038                       # average overall miss latency
system.l2.demand_avg_miss_latency::total 95302.495194                       # average overall miss latency
system.l2.overall_avg_miss_latency::cpu0.inst        93500                       # average overall miss latency
system.l2.overall_avg_miss_latency::cpu0.data 95302.505038                       # average overall miss latency
system.l2.overall_avg_miss_latency::total 95302.495194                       # average overall miss latency
system.l2.blocked_cycles::no_mshrs                  0                       # number of cycles access was blocked
system.l2.blocked_cycles::no_targets                0                       # number of cycles access was blocked
system.l2.blocked::no_mshrs                         0                       # number of cycles access was blocked
system.l2.blocked::no_targets                       0                       # number of cycles access was blocked
system.l2.avg_blocked_cycles::no_mshrs            nan                       # average number of cycles each access was blocked
system.l2.avg_blocked_cycles::no_targets          nan                       # average number of cycles each access was blocked
system.l2.writebacks::writebacks                  308                       # number of writebacks
system.l2.writebacks::total                       308                       # number of writebacks
system.l2.ReadExReq_mshr_misses::cpu0.data          227                       # number of ReadExReq MSHR misses
system.l2.ReadExReq_mshr_misses::total            227                       # number of ReadExReq MSHR misses
system.l2.ReadCleanReq_mshr_misses::cpu0.inst            1                       # number of ReadCleanReq MSHR misses
system.l2.ReadCleanReq_mshr_misses::total            1                       # number of ReadCleanReq MSHR misses
system.l2.ReadSharedReq_mshr_misses::cpu0.data       182884                       # number of ReadSharedReq MSHR misses
system.l2.ReadSharedReq_mshr_misses::total       182884                       # number of ReadSharedReq MSHR misses
system.l2.demand_mshr_misses::cpu0.inst             1                       # number of demand (read+write) MSHR misses
system.l2.demand_mshr_misses::cpu0.data        183111                       # number of demand (read+write) MSHR misses
system.l2.demand_mshr_misses::total            183112                       # number of demand (read+write) MSHR misses
system.l2.overall_mshr_misses::cpu0.inst            1                       # number of overall MSHR misses
system.l2.overall_mshr_misses::cpu0.data       183111                       # number of overall MSHR misses
system.l2.overall_mshr_misses::total           183112                       # number of overall MSHR misses
system.l2.ReadExReq_mshr_miss_latency::cpu0.data     24040500                       # number of ReadExReq MSHR miss cycles
system.l2.ReadExReq_mshr_miss_latency::total     24040500                       # number of ReadExReq MSHR miss cycles
system.l2.ReadCleanReq_mshr_miss_latency::cpu0.inst        83500                       # number of ReadCleanReq MSHR miss cycles
system.l2.ReadCleanReq_mshr_miss_latency::total        83500                       # number of ReadCleanReq MSHR miss cycles
system.l2.ReadSharedReq_mshr_miss_latency::cpu0.data  15595786500                       # number of ReadSharedReq MSHR miss cycles
system.l2.ReadSharedReq_mshr_miss_latency::total  15595786500                       # number of ReadSharedReq MSHR miss cycles
system.l2.demand_mshr_miss_latency::cpu0.inst        83500                       # number of demand (read+write) MSHR miss cycles
system.l2.demand_mshr_miss_latency::cpu0.data  15619827000                       # number of demand (read+write) MSHR miss cycles
system.l2.demand_mshr_miss_latency::total  15619910500                       # number of demand (read+write) MSHR miss cycles
system.l2.overall_mshr_miss_latency::cpu0.inst        83500                       # number of overall MSHR miss cycles
system.l2.overall_mshr_miss_latency::cpu0.data  15619827000                       # number of overall MSHR miss cycles
system.l2.overall_mshr_miss_latency::total  15619910500                       # number of overall MSHR miss cycles
system.l2.ReadExReq_mshr_miss_rate::cpu0.data     0.237696                       # mshr miss rate for ReadExReq accesses
system.l2.ReadExReq_mshr_miss_rate::total     0.237696                       # mshr miss rate for ReadExReq accesses
system.l2.ReadCleanReq_mshr_miss_rate::cpu0.inst            1                       # mshr miss rate for ReadCleanReq accesses
system.l2.ReadCleanReq_mshr_miss_rate::total            1                       # mshr miss rate for ReadCleanReq accesses
system.l2.ReadSharedReq_mshr_miss_rate::cpu0.data     0.665686                       # mshr miss rate for ReadSharedReq accesses
system.l2.ReadSharedReq_mshr_miss_rate::total     0.665686                       # mshr miss rate for ReadSharedReq accesses
system.l2.demand_mshr_miss_rate::cpu0.inst            1                       # mshr miss rate for demand accesses
system.l2.demand_mshr_miss_rate::cpu0.data     0.664204                       # mshr miss rate for demand accesses
system.l2.demand_mshr_miss_rate::total       0.664205                       # mshr miss rate for demand accesses
system.l2.overall_mshr_miss_rate::cpu0.inst            1                       # mshr miss rate for overall accesses
system.l2.overall_mshr_miss_rate::cpu0.data     0.664204                       # mshr miss rate for overall accesses
system.l2.overall_mshr_miss_rate::total      0.664205                       # mshr miss rate for overall accesses
system.l2.ReadExReq_avg_mshr_miss_latency::cpu0.data 105905.286344                       # average ReadExReq mshr miss latency
system.l2.ReadExReq_avg_mshr_miss_latency::total 105905.286344                       # average ReadExReq mshr miss latency
system.l2.ReadCleanReq_avg_mshr_miss_latency::cpu0.inst        83500                       # average ReadCleanReq mshr miss latency
system.l2.ReadCleanReq_avg_mshr_miss_latency::total        83500                       # average ReadCleanReq mshr miss latency
system.l2.ReadSharedReq_avg_mshr_miss_latency::cpu0.data 85276.932372                       # average ReadSharedReq mshr miss latency
system.l2.ReadSharedReq_avg_mshr_miss_latency::total 85276.932372                       # average ReadSharedReq mshr miss latency
system.l2.demand_avg_mshr_miss_latency::cpu0.inst        83500                       # average overall mshr miss latency
system.l2.demand_avg_mshr_miss_latency::cpu0.data 85302.505038                       # average overall mshr miss latency
system.l2.demand_avg_mshr_miss_latency::total 85302.495194                       # average overall mshr miss latency
system.l2.overall_avg_mshr_miss_latency::cpu0.inst        83500                       # average overall mshr miss latency
system.l2.overall_avg_mshr_miss_latency::cpu0.data 85302.505038                       # average overall mshr miss latency
system.l2.overall_avg_mshr_miss_latency::total 85302.495194                       # average overall mshr miss latency
system.membus.snoop_filter.tot_requests        366222                       # Total number of requests made to the snoop filter.
system.membus.snoop_filter.hit_single_requests       183111                       # Number of requests hitting in the snoop filter with a single holder of the requested data.
system.membus.snoop_filter.hit_multi_requests            0                       # Number of requests hitting in the snoop filter with multiple (>1) holders of the requested data.
system.membus.snoop_filter.tot_snoops               0                       # Total number of snoops made to the snoop filter.
system.membus.snoop_filter.hit_single_snoops            0                       # Number of snoops hitting in the snoop filter with a single holder of the requested data.
system.membus.snoop_filter.hit_multi_snoops            0                       # Number of snoops hitting in the snoop filter with multiple (>1) holders of the requested data.
system.membus.pwrStateResidencyTicks::UNDEFINED  15267344125                       # Cumulative time (in ticks) in various power states
system.membus.trans_dist::ReadResp             182885                       # Transaction distribution
system.membus.trans_dist::WritebackDirty          308                       # Transaction distribution
system.membus.trans_dist::CleanEvict           182802                       # Transaction distribution
system.membus.trans_dist::ReadExReq               227                       # Transaction distribution
system.membus.trans_dist::ReadExResp              227                       # Transaction distribution
system.membus.trans_dist::ReadSharedReq        182885                       # Transaction distribution
system.membus.pkt_count_system.l2.mem_side::system.mem_ctrls.port       549334                       # Packet count per connected master and slave (bytes)
system.membus.pkt_count_system.l2.mem_side::total       549334                       # Packet count per connected master and slave (bytes)
system.membus.pkt_count::total                 549334                       # Packet count per connected master and slave (bytes)
system.membus.pkt_size_system.l2.mem_side::system.mem_ctrls.port     11738880                       # Cumulative packet size per connected master and slave (bytes)
system.membus.pkt_size_system.l2.mem_side::total     11738880                       # Cumulative packet size per connected master and slave (bytes)
system.membus.pkt_size::total                11738880                       # Cumulative packet size per connected master and slave (bytes)
system.membus.snoops                                0                       # Total snoops (count)
system.membus.snoopTraffic                          0                       # Total snoop traffic (bytes)
system.membus.snoop_fanout::samples            183112                       # Request fanout histogram
system.membus.snoop_fanout::mean                    0                       # Request fanout histogram
system.membus.snoop_fanout::stdev                   0                       # Request fanout histogram
system.membus.snoop_fanout::underflows              0      0.00%      0.00% # Request fanout histogram
system.membus.snoop_fanout::0                  183112    100.00%    100.00% # Request fanout histogram
system.membus.snoop_fanout::1                       0      0.00%    100.00% # Request fanout histogram
system.membus.snoop_fanout::overflows               0      0.00%    100.00% # Request fanout histogram
system.membus.snoop_fanout::min_value               0                       # Request fanout histogram
system.membus.snoop_fanout::max_value               0                       # Request fanout histogram
system.membus.snoop_fanout::total              183112                       # Request fanout histogram
system.membus.reqLayer8.occupancy           434088500                       # Layer occupancy (ticks)
system.membus.reqLayer8.utilization               2.8                       # Layer utilization (%)
system.membus.respLayer1.occupancy          991997500                       # Layer occupancy (ticks)
system.membus.respLayer1.utilization              6.5                       # Layer utilization (%)
system.tol2bus.snoop_filter.tot_requests       551372                       # Total number of requests made to the snoop filter.
system.tol2bus.snoop_filter.hit_single_requests       275686                       # Number of requests hitting in the snoop filter with a single holder of the requested data.
system.tol2bus.snoop_filter.hit_multi_requests          428                       # Number of requests hitting in the snoop filter with multiple (>1) holders of the requested data.
system.tol2bus.snoop_filter.tot_snoops              3                       # Total number of snoops made to the snoop filter.
system.tol2bus.snoop_filter.hit_single_snoops            3                       # Number of snoops hitting in the snoop filter with a single holder of the requested data.
system.tol2bus.snoop_filter.hit_multi_snoops            0                       # Number of snoops hitting in the snoop filter with multiple (>1) holders of the requested data.
system.tol2bus.pwrStateResidencyTicks::UNDEFINED  15267344125                       # Cumulative time (in ticks) in various power states
system.tol2bus.trans_dist::ReadResp            274731                       # Transaction distribution
system.tol2bus.trans_dist::WritebackDirty         3108                       # Transaction distribution
system.tol2bus.trans_dist::WritebackClean            1                       # Transaction distribution
system.tol2bus.trans_dist::CleanEvict          455690                       # Transaction distribution
system.tol2bus.trans_dist::ReadExReq              955                       # Transaction distribution
system.tol2bus.trans_dist::ReadExResp             955                       # Transaction distribution
system.tol2bus.trans_dist::ReadCleanReq             1                       # Transaction distribution
system.tol2bus.trans_dist::ReadSharedReq       274730                       # Transaction distribution
system.tol2bus.pkt_count_system.cpu0.icache.mem_side::system.l2.cpu_side            3                       # Packet count per connected master and slave (bytes)
system.tol2bus.pkt_count_system.cpu0.dcache.mem_side::system.l2.cpu_side       827055                       # Packet count per connected master and slave (bytes)
system.tol2bus.pkt_count::total                827058                       # Packet count per connected master and slave (bytes)
system.tol2bus.pkt_size_system.cpu0.icache.mem_side::system.l2.cpu_side          128                       # Cumulative packet size per connected master and slave (bytes)
system.tol2bus.pkt_size_system.cpu0.dcache.mem_side::system.l2.cpu_side     17823040                       # Cumulative packet size per connected master and slave (bytes)
system.tol2bus.pkt_size::total               17823168                       # Cumulative packet size per connected master and slave (bytes)
system.tol2bus.snoops                          183113                       # Total snoops (count)
system.tol2bus.snoopTraffic                     19712                       # Total snoop traffic (bytes)
system.tol2bus.snoop_fanout::samples           458799                       # Request fanout histogram
system.tol2bus.snoop_fanout::mean            0.000939                       # Request fanout histogram
system.tol2bus.snoop_fanout::stdev           0.030635                       # Request fanout histogram
system.tol2bus.snoop_fanout::underflows             0      0.00%      0.00% # Request fanout histogram
system.tol2bus.snoop_fanout::0                 458368     99.91%     99.91% # Request fanout histogram
system.tol2bus.snoop_fanout::1                    431      0.09%    100.00% # Request fanout histogram
system.tol2bus.snoop_fanout::2                      0      0.00%    100.00% # Request fanout histogram
system.tol2bus.snoop_fanout::3                      0      0.00%    100.00% # Request fanout histogram
system.tol2bus.snoop_fanout::4                      0      0.00%    100.00% # Request fanout histogram
system.tol2bus.snoop_fanout::5                      0      0.00%    100.00% # Request fanout histogram
system.tol2bus.snoop_fanout::6                      0      0.00%    100.00% # Request fanout histogram
system.tol2bus.snoop_fanout::7                      0      0.00%    100.00% # Request fanout histogram
system.tol2bus.snoop_fanout::8                      0      0.00%    100.00% # Request fanout histogram
system.tol2bus.snoop_fanout::9                      0      0.00%    100.00% # Request fanout histogram
system.tol2bus.snoop_fanout::10                     0      0.00%    100.00% # Request fanout histogram
system.tol2bus.snoop_fanout::11                     0      0.00%    100.00% # Request fanout histogram
system.tol2bus.snoop_fanout::12                     0      0.00%    100.00% # Request fanout histogram
system.tol2bus.snoop_fanout::13                     0      0.00%    100.00% # Request fanout histogram
system.tol2bus.snoop_fanout::14                     0      0.00%    100.00% # Request fanout histogram
system.tol2bus.snoop_fanout::15                     0      0.00%    100.00% # Request fanout histogram
system.tol2bus.snoop_fanout::16                     0      0.00%    100.00% # Request fanout histogram
system.tol2bus.snoop_fanout::overflows              0      0.00%    100.00% # Request fanout histogram
system.tol2bus.snoop_fanout::min_value              0                       # Request fanout histogram
system.tol2bus.snoop_fanout::max_value              1                       # Request fanout histogram
system.tol2bus.snoop_fanout::total             458799                       # Request fanout histogram
system.tol2bus.reqLayer0.occupancy          278487000                       # Layer occupancy (ticks)
system.tol2bus.reqLayer0.utilization              1.8                       # Layer utilization (%)
system.tol2bus.respLayer0.occupancy              1500                       # Layer occupancy (ticks)
system.tol2bus.respLayer0.utilization             0.0                       # Layer utilization (%)
system.tol2bus.respLayer1.occupancy         413527500                       # Layer occupancy (ticks)
system.tol2bus.respLayer1.utilization             2.7                       # Layer utilization (%)

---------- End Simulation Statistics   ----------
