
---------- Begin Simulation Statistics ----------
sim_seconds                                  0.015267                       # Number of seconds simulated
sim_ticks                                 15267344125                       # Number of ticks simulated
final_tick                                76336720625                       # Number of ticks from beginning of simulation (restored from checkpoints and never reset)
sim_freq                                 1000000000000                       # Frequency of simulated ticks
host_inst_rate                                 424278                       # Simulator instruction rate (inst/s)
host_op_rate                                   791867                       # Simulator op (including micro ops) rate (op/s)
host_tick_rate                               35847187                       # Simulator tick rate (ticks/s)
host_mem_usage                                2301552                       # Number of bytes of host memory used
host_seconds                                   425.90                       # Real time elapsed on the host
sim_insts                                   180700381                       # Number of instructions simulated
sim_ops                                     337256760                       # Number of ops (including micro ops) simulated
system.voltage_domain.voltage                       1                       # Voltage in Volts
system.clk_domain.clock                          1000                       # Clock period in ticks
system.mem_ctrls.pwrStateResidencyTicks::UNDEFINED  15267344125                       # Cumulative time (in ticks) in various power states
system.mem_ctrls.bytes_read::cpu0.inst             64                       # Number of bytes read from this memory
system.mem_ctrls.bytes_read::cpu0.data         216576                       # Number of bytes read from this memory
system.mem_ctrls.bytes_read::total             216640                       # Number of bytes read from this memory
system.mem_ctrls.bytes_inst_read::cpu0.inst           64                       # Number of instructions bytes read from this memory
system.mem_ctrls.bytes_inst_read::total            64                       # Number of instructions bytes read from this memory
system.mem_ctrls.bytes_written::writebacks          576                       # Number of bytes written to this memory
system.mem_ctrls.bytes_written::total             576                       # Number of bytes written to this memory
system.mem_ctrls.num_reads::cpu0.inst               1                       # Number of read requests responded to by this memory
system.mem_ctrls.num_reads::cpu0.data            3384                       # Number of read requests responded to by this memory
system.mem_ctrls.num_reads::total                3385                       # Number of read requests responded to by this memory
system.mem_ctrls.num_writes::writebacks             9                       # Number of write requests responded to by this memory
system.mem_ctrls.num_writes::total                  9                       # Number of write requests responded to by this memory
system.mem_ctrls.bw_read::cpu0.inst              4192                       # Total read bandwidth from this memory (bytes/s)
system.mem_ctrls.bw_read::cpu0.data          14185571                       # Total read bandwidth from this memory (bytes/s)
system.mem_ctrls.bw_read::total              14189763                       # Total read bandwidth from this memory (bytes/s)
system.mem_ctrls.bw_inst_read::cpu0.inst         4192                       # Instruction read bandwidth from this memory (bytes/s)
system.mem_ctrls.bw_inst_read::total             4192                       # Instruction read bandwidth from this memory (bytes/s)
system.mem_ctrls.bw_write::writebacks           37728                       # Write bandwidth from this memory (bytes/s)
system.mem_ctrls.bw_write::total                37728                       # Write bandwidth from this memory (bytes/s)
system.mem_ctrls.bw_total::writebacks           37728                       # Total bandwidth to/from this memory (bytes/s)
system.mem_ctrls.bw_total::cpu0.inst             4192                       # Total bandwidth to/from this memory (bytes/s)
system.mem_ctrls.bw_total::cpu0.data         14185571                       # Total bandwidth to/from this memory (bytes/s)
system.mem_ctrls.bw_total::total             14227491                       # Total bandwidth to/from this memory (bytes/s)
system.mem_ctrls.readReqs                        3385                       # Number of read requests accepted
system.mem_ctrls.writeReqs                          9                       # Number of write requests accepted
system.mem_ctrls.readBursts                      3385                       # Number of DRAM read bursts, including those serviced by the write queue
system.mem_ctrls.writeBursts                        9                       # Number of DRAM write bursts, including those merged in the write queue
system.mem_ctrls.bytesReadDRAM                 216640                       # Total number of bytes read from DRAM
system.mem_ctrls.bytesReadWrQ                       0                       # Total number of bytes read from write queue
system.mem_ctrls.bytesWritten                       0                       # Total number of bytes written to DRAM
system.mem_ctrls.bytesReadSys                  216640                       # Total read bytes from the system interface side
system.mem_ctrls.bytesWrittenSys                  576                       # Total written bytes from the system interface side
system.mem_ctrls.servicedByWrQ                      0                       # Number of DRAM read bursts serviced by the write queue
system.mem_ctrls.mergedWrBursts                     0                       # Number of DRAM write bursts merged with an existing one
system.mem_ctrls.neitherReadNorWriteReqs            0                       # Number of requests that are neither read nor write
system.mem_ctrls.perBankRdBursts::0               256                       # Per bank write bursts
system.mem_ctrls.perBankRdBursts::1               202                       # Per bank write bursts
system.mem_ctrls.perBankRdBursts::2               158                       # Per bank write bursts
system.mem_ctrls.perBankRdBursts::3               256                       # Per bank write bursts
system.mem_ctrls.perBankRdBursts::4               235                       # Per bank write bursts
system.mem_ctrls.perBankRdBursts::5               256                       # Per bank write bursts
system.mem_ctrls.perBankRdBursts::6               256                       # Per bank write bursts
system.mem_ctrls.perBankRdBursts::7               201                       # Per bank write bursts
system.mem_ctrls.perBankRdBursts::8               128                       # Per bank write bursts
system.mem_ctrls.perBankRdBursts::9               129                       # Per bank write bursts
system.mem_ctrls.perBankRdBursts::10              128                       # Per bank write bursts
system.mem_ctrls.perBankRdBursts::11              156                       # Per bank write bursts
system.mem_ctrls.perBankRdBursts::12              256                       # Per bank write bursts
system.mem_ctrls.perBankRdBursts::13              256                       # Per bank write bursts
system.mem_ctrls.perBankRdBursts::14              256                       # Per bank write bursts
system.mem_ctrls.perBankRdBursts::15              256                       # Per bank write bursts
system.mem_ctrls.perBankWrBursts::0                 0                       # Per bank write bursts
system.mem_ctrls.perBankWrBursts::1                 0                       # Per bank write bursts
system.mem_ctrls.perBankWrBursts::2                 0                       # Per bank write bursts
system.mem_ctrls.perBankWrBursts::3                 0                       # Per bank write bursts
system.mem_ctrls.perBankWrBursts::4                 0                       # Per bank write bursts
system.mem_ctrls.perBankWrBursts::5                 0                       # Per bank write bursts
system.mem_ctrls.perBankWrBursts::6                 0                       # Per bank write bursts
system.mem_ctrls.perBankWrBursts::7                 0                       # Per bank write bursts
system.mem_ctrls.perBankWrBursts::8                 0                       # Per bank write bursts
system.mem_ctrls.perBankWrBursts::9                 0                       # Per bank write bursts
system.mem_ctrls.perBankWrBursts::10                0                       # Per bank write bursts
system.mem_ctrls.perBankWrBursts::11                0                       # Per bank write bursts
system.mem_ctrls.perBankWrBursts::12                0                       # Per bank write bursts
system.mem_ctrls.perBankWrBursts::13                0                       # Per bank write bursts
system.mem_ctrls.perBankWrBursts::14                0                       # Per bank write bursts
system.mem_ctrls.perBankWrBursts::15                0                       # Per bank write bursts
system.mem_ctrls.numRdRetry                         0                       # Number of times read queue was full causing retry
system.mem_ctrls.numWrRetry                         0                       # Number of times write queue was full causing retry
system.mem_ctrls.totGap                   15269400500                       # Total gap between requests
system.mem_ctrls.readPktSize::0                     0                       # Read request sizes (log2)
system.mem_ctrls.readPktSize::1                     0                       # Read request sizes (log2)
system.mem_ctrls.readPktSize::2                     0                       # Read request sizes (log2)
system.mem_ctrls.readPktSize::3                     0                       # Read request sizes (log2)
system.mem_ctrls.readPktSize::4                     0                       # Read request sizes (log2)
system.mem_ctrls.readPktSize::5                     0                       # Read request sizes (log2)
system.mem_ctrls.readPktSize::6                  3385                       # Read request sizes (log2)
system.mem_ctrls.writePktSize::0                    0                       # Write request sizes (log2)
system.mem_ctrls.writePktSize::1                    0                       # Write request sizes (log2)
system.mem_ctrls.writePktSize::2                    0                       # Write request sizes (log2)
system.mem_ctrls.writePktSize::3                    0                       # Write request sizes (log2)
system.mem_ctrls.writePktSize::4                    0                       # Write request sizes (log2)
system.mem_ctrls.writePktSize::5                    0                       # Write request sizes (log2)
system.mem_ctrls.writePktSize::6                    9                       # Write request sizes (log2)
system.mem_ctrls.rdQLenPdf::0                    3384                       # What read queue length does an incoming req see
system.mem_ctrls.rdQLenPdf::1                       1                       # What read queue length does an incoming req see
system.mem_ctrls.rdQLenPdf::2                       0                       # What read queue length does an incoming req see
system.mem_ctrls.rdQLenPdf::3                       0                       # What read queue length does an incoming req see
system.mem_ctrls.rdQLenPdf::4                       0                       # What read queue length does an incoming req see
system.mem_ctrls.rdQLenPdf::5                       0                       # What read queue length does an incoming req see
system.mem_ctrls.rdQLenPdf::6                       0                       # What read queue length does an incoming req see
system.mem_ctrls.rdQLenPdf::7                       0                       # What read queue length does an incoming req see
system.mem_ctrls.rdQLenPdf::8                       0                       # What read queue length does an incoming req see
system.mem_ctrls.rdQLenPdf::9                       0                       # What read queue length does an incoming req see
system.mem_ctrls.rdQLenPdf::10                      0                       # What read queue length does an incoming req see
system.mem_ctrls.rdQLenPdf::11                      0                       # What read queue length does an incoming req see
system.mem_ctrls.rdQLenPdf::12                      0                       # What read queue length does an incoming req see
system.mem_ctrls.rdQLenPdf::13                      0                       # What read queue length does an incoming req see
system.mem_ctrls.rdQLenPdf::14                      0                       # What read queue length does an incoming req see
system.mem_ctrls.rdQLenPdf::15                      0                       # What read queue length does an incoming req see
system.mem_ctrls.rdQLenPdf::16                      0                       # What read queue length does an incoming req see
system.mem_ctrls.rdQLenPdf::17                      0                       # What read queue length does an incoming req see
system.mem_ctrls.rdQLenPdf::18                      0                       # What read queue length does an incoming req see
system.mem_ctrls.rdQLenPdf::19                      0                       # What read queue length does an incoming req see
system.mem_ctrls.rdQLenPdf::20                      0                       # What read queue length does an incoming req see
system.mem_ctrls.rdQLenPdf::21                      0                       # What read queue length does an incoming req see
system.mem_ctrls.rdQLenPdf::22                      0                       # What read queue length does an incoming req see
system.mem_ctrls.rdQLenPdf::23                      0                       # What read queue length does an incoming req see
system.mem_ctrls.rdQLenPdf::24                      0                       # What read queue length does an incoming req see
system.mem_ctrls.rdQLenPdf::25                      0                       # What read queue length does an incoming req see
system.mem_ctrls.rdQLenPdf::26                      0                       # What read queue length does an incoming req see
system.mem_ctrls.rdQLenPdf::27                      0                       # What read queue length does an incoming req see
system.mem_ctrls.rdQLenPdf::28                      0                       # What read queue length does an incoming req see
system.mem_ctrls.rdQLenPdf::29                      0                       # What read queue length does an incoming req see
system.mem_ctrls.rdQLenPdf::30                      0                       # What read queue length does an incoming req see
system.mem_ctrls.rdQLenPdf::31                      0                       # What read queue length does an incoming req see
system.mem_ctrls.wrQLenPdf::0                       0                       # What write queue length does an incoming req see
system.mem_ctrls.wrQLenPdf::1                       0                       # What write queue length does an incoming req see
system.mem_ctrls.wrQLenPdf::2                       0                       # What write queue length does an incoming req see
system.mem_ctrls.wrQLenPdf::3                       1                       # What write queue length does an incoming req see
system.mem_ctrls.wrQLenPdf::4                       1                       # What write queue length does an incoming req see
system.mem_ctrls.wrQLenPdf::5                       1                       # What write queue length does an incoming req see
system.mem_ctrls.wrQLenPdf::6                       1                       # What write queue length does an incoming req see
system.mem_ctrls.wrQLenPdf::7                       1                       # What write queue length does an incoming req see
system.mem_ctrls.wrQLenPdf::8                       1                       # What write queue length does an incoming req see
system.mem_ctrls.wrQLenPdf::9                       1                       # What write queue length does an incoming req see
system.mem_ctrls.wrQLenPdf::10                      1                       # What write queue length does an incoming req see
system.mem_ctrls.wrQLenPdf::11                      1                       # What write queue length does an incoming req see
system.mem_ctrls.wrQLenPdf::12                      0                       # What write queue length does an incoming req see
system.mem_ctrls.wrQLenPdf::13                      0                       # What write queue length does an incoming req see
system.mem_ctrls.wrQLenPdf::14                      0                       # What write queue length does an incoming req see
system.mem_ctrls.wrQLenPdf::15                      0                       # What write queue length does an incoming req see
system.mem_ctrls.wrQLenPdf::16                      0                       # What write queue length does an incoming req see
system.mem_ctrls.wrQLenPdf::17                      0                       # What write queue length does an incoming req see
system.mem_ctrls.wrQLenPdf::18                      0                       # What write queue length does an incoming req see
system.mem_ctrls.wrQLenPdf::19                      0                       # What write queue length does an incoming req see
system.mem_ctrls.wrQLenPdf::20                      0                       # What write queue length does an incoming req see
system.mem_ctrls.wrQLenPdf::21                      0                       # What write queue length does an incoming req see
system.mem_ctrls.wrQLenPdf::22                      0                       # What write queue length does an incoming req see
system.mem_ctrls.wrQLenPdf::23                      0                       # What write queue length does an incoming req see
system.mem_ctrls.wrQLenPdf::24                      0                       # What write queue length does an incoming req see
system.mem_ctrls.wrQLenPdf::25                      0                       # What write queue length does an incoming req see
system.mem_ctrls.wrQLenPdf::26                      0                       # What write queue length does an incoming req see
system.mem_ctrls.wrQLenPdf::27                      0                       # What write queue length does an incoming req see
system.mem_ctrls.wrQLenPdf::28                      0                       # What write queue length does an incoming req see
system.mem_ctrls.wrQLenPdf::29                      0                       # What write queue length does an incoming req see
system.mem_ctrls.wrQLenPdf::30                      0                       # What write queue length does an incoming req see
system.mem_ctrls.wrQLenPdf::31                      0                       # What write queue length does an incoming req see
system.mem_ctrls.wrQLenPdf::32                      0                       # What write queue length does an incoming req see
system.mem_ctrls.wrQLenPdf::33                      0                       # What write queue length does an incoming req see
system.mem_ctrls.wrQLenPdf::34                      0                       # What write queue length does an incoming req see
system.mem_ctrls.wrQLenPdf::35                      0                       # What write queue length does an incoming req see
system.mem_ctrls.wrQLenPdf::36                      0                       # What write queue length does an incoming req see
system.mem_ctrls.wrQLenPdf::37                      0                       # What write queue length does an incoming req see
system.mem_ctrls.wrQLenPdf::38                      0                       # What write queue length does an incoming req see
system.mem_ctrls.wrQLenPdf::39                      0                       # What write queue length does an incoming req see
system.mem_ctrls.wrQLenPdf::40                      0                       # What write queue length does an incoming req see
system.mem_ctrls.wrQLenPdf::41                      0                       # What write queue length does an incoming req see
system.mem_ctrls.wrQLenPdf::42                      0                       # What write queue length does an incoming req see
system.mem_ctrls.wrQLenPdf::43                      0                       # What write queue length does an incoming req see
system.mem_ctrls.wrQLenPdf::44                      0                       # What write queue length does an incoming req see
system.mem_ctrls.wrQLenPdf::45                      0                       # What write queue length does an incoming req see
system.mem_ctrls.wrQLenPdf::46                      0                       # What write queue length does an incoming req see
system.mem_ctrls.wrQLenPdf::47                      0                       # What write queue length does an incoming req see
system.mem_ctrls.wrQLenPdf::48                      0                       # What write queue length does an incoming req see
system.mem_ctrls.wrQLenPdf::49                      0                       # What write queue length does an incoming req see
system.mem_ctrls.wrQLenPdf::50                      0                       # What write queue length does an incoming req see
system.mem_ctrls.wrQLenPdf::51                      0                       # What write queue length does an incoming req see
system.mem_ctrls.wrQLenPdf::52                      0                       # What write queue length does an incoming req see
system.mem_ctrls.wrQLenPdf::53                      0                       # What write queue length does an incoming req see
system.mem_ctrls.wrQLenPdf::54                      0                       # What write queue length does an incoming req see
system.mem_ctrls.wrQLenPdf::55                      0                       # What write queue length does an incoming req see
system.mem_ctrls.wrQLenPdf::56                      0                       # What write queue length does an incoming req see
system.mem_ctrls.wrQLenPdf::57                      0                       # What write queue length does an incoming req see
system.mem_ctrls.wrQLenPdf::58                      0                       # What write queue length does an incoming req see
system.mem_ctrls.wrQLenPdf::59                      0                       # What write queue length does an incoming req see
system.mem_ctrls.wrQLenPdf::60                      0                       # What write queue length does an incoming req see
system.mem_ctrls.wrQLenPdf::61                      0                       # What write queue length does an incoming req see
system.mem_ctrls.wrQLenPdf::62                      0                       # What write queue length does an incoming req see
system.mem_ctrls.wrQLenPdf::63                      0                       # What write queue length does an incoming req see
system.mem_ctrls.bytesPerActivate::samples         3313                       # Bytes accessed per row activation
system.mem_ctrls.bytesPerActivate::mean     65.371567                       # Bytes accessed per row activation
system.mem_ctrls.bytesPerActivate::gmean    64.952153                       # Bytes accessed per row activation
system.mem_ctrls.bytesPerActivate::stdev     9.402044                       # Bytes accessed per row activation
system.mem_ctrls.bytesPerActivate::64-79         3243     97.89%     97.89% # Bytes accessed per row activation
system.mem_ctrls.bytesPerActivate::128-143           69      2.08%     99.97% # Bytes accessed per row activation
system.mem_ctrls.bytesPerActivate::192-207            1      0.03%    100.00% # Bytes accessed per row activation
system.mem_ctrls.bytesPerActivate::total         3313                       # Bytes accessed per row activation
system.mem_ctrls.totQLat                    387648750                       # Total ticks spent queuing
system.mem_ctrls.totMemAccLat               451117500                       # Total ticks spent from burst creation until serviced by the DRAM
system.mem_ctrls.totBusLat                   16925000                       # Total ticks spent in databus transfers
system.mem_ctrls.avgQLat                    114519.57                       # Average queueing delay per DRAM burst
system.mem_ctrls.avgBusLat                    5000.00                       # Average bus latency per DRAM burst
system.mem_ctrls.avgMemAccLat               133269.57                       # Average memory access latency per DRAM burst
system.mem_ctrls.avgRdBW                        14.19                       # Average DRAM read bandwidth in MiByte/s
system.mem_ctrls.avgWrBW                         0.00                       # Average achieved write bandwidth in MiByte/s
system.mem_ctrls.avgRdBWSys                     14.19                       # Average system read bandwidth in MiByte/s
system.mem_ctrls.avgWrBWSys                      0.04                       # Average system write bandwidth in MiByte/s
system.mem_ctrls.peakBW                      12800.00                       # Theoretical peak bandwidth in MiByte/s
system.mem_ctrls.busUtil                         0.11                       # Data bus utilization in percentage
system.mem_ctrls.busUtilRead                     0.11                       # Data bus utilization in percentage for reads
system.mem_ctrls.busUtilWrite                    0.00                       # Data bus utilization in percentage for writes
system.mem_ctrls.avgRdQLen                       1.00                       # Average read queue length when enqueuing
system.mem_ctrls.avgWrQLen                       3.63                       # Average write queue length when enqueuing
system.mem_ctrls.readRowHits                       71                       # Number of row buffer hits during reads
system.mem_ctrls.writeRowHits                       0                       # Number of row buffer hits during writes
system.mem_ctrls.readRowHitRate                  2.10                       # Row buffer hit rate for reads
system.mem_ctrls.writeRowHitRate                 0.00                       # Row buffer hit rate for writes
system.mem_ctrls.avgGap                    4498939.45                       # Average gap between requests
system.mem_ctrls.pageHitRate                     2.09                       # Row buffer hit rate, read and write combined
system.mem_ctrls_0.actEnergy                 12709200                       # Energy for activate commands per rank (pJ)
system.mem_ctrls_0.preEnergy                  6751305                       # Energy for precharge commands per rank (pJ)
system.mem_ctrls_0.readEnergy                12994800                       # Energy for read commands per rank (pJ)
system.mem_ctrls_0.writeEnergy                      0                       # Energy for write commands per rank (pJ)
system.mem_ctrls_0.refreshEnergy         1269846240.000000                       # Energy for refresh commands per rank (pJ)
system.mem_ctrls_0.actBackEnergy            263495610                       # Energy for active background per rank (pJ)
system.mem_ctrls_0.preBackEnergy             55669440                       # Energy for precharge background per rank (pJ)
system.mem_ctrls_0.actPowerDownEnergy      3013314690                       # Energy for active power-down per rank (pJ)
system.mem_ctrls_0.prePowerDownEnergy      2420902560                       # Energy for precharge power-down per rank (pJ)
system.mem_ctrls_0.selfRefreshEnergy        577772880                       # Energy for self refresh per rank (pJ)
system.mem_ctrls_0.totalEnergy             7634307225                       # Total energy per rank (pJ)
system.mem_ctrls_0.averagePower            500.041603                       # Core power per rank (mW)
system.mem_ctrls_0.totalIdleTime          14541966750                       # Total Idle time Per DRAM Rank
system.mem_ctrls_0.memoryStateTime::IDLE     97170000                       # Time in different power states
system.mem_ctrls_0.memoryStateTime::REF     539332000                       # Time in different power states
system.mem_ctrls_0.memoryStateTime::SREF   1630058250                       # Time in different power states
system.mem_ctrls_0.memoryStateTime::PRE_PDN   6304256750                       # Time in different power states
system.mem_ctrls_0.memoryStateTime::ACT      88591750                       # Time in different power states
system.mem_ctrls_0.memoryStateTime::ACT_PDN   6607935375                       # Time in different power states
system.mem_ctrls_1.actEnergy                 10952760                       # Energy for activate commands per rank (pJ)
system.mem_ctrls_1.preEnergy                  5821530                       # Energy for precharge commands per rank (pJ)
system.mem_ctrls_1.readEnergy                11174100                       # Energy for read commands per rank (pJ)
system.mem_ctrls_1.writeEnergy                      0                       # Energy for write commands per rank (pJ)
system.mem_ctrls_1.refreshEnergy         1195474800.000000                       # Energy for refresh commands per rank (pJ)
system.mem_ctrls_1.actBackEnergy            245632950                       # Energy for active background per rank (pJ)
system.mem_ctrls_1.preBackEnergy             44352480                       # Energy for precharge background per rank (pJ)
system.mem_ctrls_1.actPowerDownEnergy      2859576000                       # Energy for active power-down per rank (pJ)
system.mem_ctrls_1.prePowerDownEnergy      2462100480                       # Energy for precharge power-down per rank (pJ)
system.mem_ctrls_1.selfRefreshEnergy        600816660                       # Energy for self refresh per rank (pJ)
system.mem_ctrls_1.totalEnergy             7438674540                       # Total energy per rank (pJ)
system.mem_ctrls_1.averagePower            487.227803                       # Core power per rank (mW)
system.mem_ctrls_1.totalIdleTime          13046124750                       # Total Idle time Per DRAM Rank
system.mem_ctrls_1.memoryStateTime::IDLE     73896000                       # Time in different power states
system.mem_ctrls_1.memoryStateTime::REF     507458000                       # Time in different power states
system.mem_ctrls_1.memoryStateTime::SREF   1924280625                       # Time in different power states
system.mem_ctrls_1.memoryStateTime::PRE_PDN   6411602000                       # Time in different power states
system.mem_ctrls_1.memoryStateTime::ACT      79124250                       # Time in different power states
system.mem_ctrls_1.memoryStateTime::ACT_PDN   6270983250                       # Time in different power states
system.pwrStateResidencyTicks::UNDEFINED  15267344125                       # Cumulative time (in ticks) in various power states
system.cpu0.branchPred.lookups               13127041                       # Number of BP lookups
system.cpu0.branchPred.condPredicted         13127041                       # Number of conditional branches predicted
system.cpu0.branchPred.condIncorrect          1077693                       # Number of conditional branches incorrect
system.cpu0.branchPred.BTBLookups            10886432                       # Number of BTB lookups
system.cpu0.branchPred.BTBHits                      0                       # Number of BTB hits
system.cpu0.branchPred.BTBCorrect                   0                       # Number of correct BTB predictions (this stat may not work properly.
system.cpu0.branchPred.BTBHitPct             0.000000                       # BTB Hit Percentage
system.cpu0.branchPred.usedRAS                1006880                       # Number of times the RAS was used to get a target.
system.cpu0.branchPred.RASInCorrect            215581                       # Number of incorrect RAS predictions.
system.cpu0.branchPred.indirectLookups       10886432                       # Number of indirect predictor lookups.
system.cpu0.branchPred.indirectHits           3568853                       # Number of indirect target hits.
system.cpu0.branchPred.indirectMisses         7317579                       # Number of indirect misses.
system.cpu0.branchPredindirectMispredicted       783516                       # Number of mispredicted indirect branches.
system.cpu_voltage_domain.voltage                   1                       # Voltage in Volts
system.cpu_clk_domain.clock                       500                       # Clock period in ticks
system.cpu0.dtb.walker.pwrStateResidencyTicks::UNDEFINED  15267344125                       # Cumulative time (in ticks) in various power states
system.cpu0.dtb.rdAccesses                   10007271                       # TLB accesses on read requests
system.cpu0.dtb.wrAccesses                    7548793                       # TLB accesses on write requests
system.cpu0.dtb.rdMisses                       139565                       # TLB misses on read requests
system.cpu0.dtb.wrMisses                        49564                       # TLB misses on write requests
system.cpu0.apic_clk_domain.clock                8000                       # Clock period in ticks
system.cpu0.interrupts.pwrStateResidencyTicks::UNDEFINED  15267344125                       # Cumulative time (in ticks) in various power states
system.cpu0.itb.walker.pwrStateResidencyTicks::UNDEFINED  15267344125                       # Cumulative time (in ticks) in various power states
system.cpu0.itb.rdAccesses                          0                       # TLB accesses on read requests
system.cpu0.itb.wrAccesses                    8936729                       # TLB accesses on write requests
system.cpu0.itb.rdMisses                            0                       # TLB misses on read requests
system.cpu0.itb.wrMisses                        16624                       # TLB misses on write requests
system.cpu0.workload.numSyscalls                   24                       # Number of system calls
system.cpu0.pwrStateResidencyTicks::ON    15267344125                       # Cumulative time (in ticks) in various power states
system.cpu0.numCycles                        30534688                       # number of cpu cycles simulated
system.cpu0.numWorkItemsStarted                     0                       # number of work items this cpu started
system.cpu0.numWorkItemsCompleted                   0                       # number of work items this cpu completed
system.cpu0.fetch.icacheStallCycles           9655070                       # Number of cycles fetch is stalled on an Icache miss
system.cpu0.fetch.Insts                      59452961                       # Number of instructions fetch has processed
system.cpu0.fetch.Branches                   13127041                       # Number of branches that fetch encountered
system.cpu0.fetch.predictedBranches           4575733                       # Number of branches that fetch has predicted taken
system.cpu0.fetch.Cycles                     19710932                       # Number of cycles fetch has run and was not squashing or blocked
system.cpu0.fetch.SquashCycles                2173770                       # Number of cycles fetch has spent squashing
system.cpu0.fetch.MiscStallCycles                9138                       # Number of cycles fetch has spent waiting on interrupts, or bad addresses, or out of MSHRs
system.cpu0.fetch.PendingTrapStallCycles        72366                       # Number of stall cycles due to pending traps
system.cpu0.fetch.CacheLines                  8920105                       # Number of cache lines fetched
system.cpu0.fetch.IcacheSquashes               271419                       # Number of outstanding Icache misses that were squashed
system.cpu0.fetch.rateDist::samples          30534391                       # Number of instructions fetched each cycle (Total)
system.cpu0.fetch.rateDist::mean             3.726301                       # Number of instructions fetched each cycle (Total)
system.cpu0.fetch.rateDist::stdev            3.579278                       # Number of instructions fetched each cycle (Total)
system.cpu0.fetch.rateDist::underflows              0      0.00%      0.00% # Number of instructions fetched each cycle (Total)
system.cpu0.fetch.rateDist::0                12403160     40.62%     40.62% # Number of instructions fetched each cycle (Total)
system.cpu0.fetch.rateDist::1                  858739      2.81%     43.43% # Number of instructions fetched each cycle (Total)
system.cpu0.fetch.rateDist::2                 1241621      4.07%     47.50% # Number of instructions fetched each cycle (Total)
system.cpu0.fetch.rateDist::3                 1402418      4.59%     52.09% # Number of instructions fetched each cycle (Total)
system.cpu0.fetch.rateDist::4                 1150468      3.77%     55.86% # Number of instructions fetched each cycle (Total)
system.cpu0.fetch.rateDist::5                 1105272      3.62%     59.48% # Number of instructions fetched each cycle (Total)
system.cpu0.fetch.rateDist::6                 1002782      3.28%     62.76% # Number of instructions fetched each cycle (Total)
system.cpu0.fetch.rateDist::7                  873282      2.86%     65.62% # Number of instructions fetched each cycle (Total)
system.cpu0.fetch.rateDist::8                10496649     34.38%    100.00% # Number of instructions fetched each cycle (Total)
system.cpu0.fetch.rateDist::overflows               0      0.00%    100.00% # Number of instructions fetched each cycle (Total)
system.cpu0.fetch.rateDist::min_value               0                       # Number of instructions fetched each cycle (Total)
system.cpu0.fetch.rateDist::max_value               8                       # Number of instructions fetched each cycle (Total)
system.cpu0.fetch.rateDist::total            30534391                       # Number of instructions fetched each cycle (Total)
system.cpu0.fetch.branchRate                 0.429906                       # Number of branch fetches per cycle
system.cpu0.fetch.rate                       1.947063                       # Number of inst fetches per cycle
system.cpu0.decode.IdleCycles                 8561941                       # Number of cycles decode is idle
system.cpu0.decode.BlockedCycles              4361616                       # Number of cycles decode is blocked
system.cpu0.decode.RunCycles                 15572411                       # Number of cycles decode is running
system.cpu0.decode.UnblockCycles               951538                       # Number of cycles decode is unblocking
system.cpu0.decode.SquashCycles               1086885                       # Number of cycles decode is squashing
system.cpu0.decode.DecodedInsts             108286759                       # Number of instructions handled by decode
system.cpu0.rename.SquashCycles               1086885                       # Number of cycles rename is squashing
system.cpu0.rename.IdleCycles                 9328707                       # Number of cycles rename is idle
system.cpu0.rename.BlockCycles                3255317                       # Number of cycles rename is blocking
system.cpu0.rename.serializeStallCycles         56038                       # count of cycles rename stalled for serializing inst
system.cpu0.rename.RunCycles                 15695227                       # Number of cycles rename is running
system.cpu0.rename.UnblockCycles              1112217                       # Number of cycles rename is unblocking
system.cpu0.rename.RenamedInsts             103232523                       # Number of instructions processed by rename
system.cpu0.rename.ROBFullEvents                  141                       # Number of times rename has blocked due to ROB full
system.cpu0.rename.IQFullEvents                 72034                       # Number of times rename has blocked due to IQ full
system.cpu0.rename.LQFullEvents                    81                       # Number of times rename has blocked due to LQ full
system.cpu0.rename.SQFullEvents                988065                       # Number of times rename has blocked due to SQ full
system.cpu0.rename.RenamedOperands          109602034                       # Number of destination operands rename has renamed
system.cpu0.rename.RenameLookups            259777779                       # Number of register rename lookups that rename has made
system.cpu0.rename.int_rename_lookups       155154320                       # Number of integer rename lookups
system.cpu0.rename.fp_rename_lookups          3257862                       # Number of floating rename lookups
system.cpu0.rename.CommittedMaps             68059176                       # Number of HB maps that are committed
system.cpu0.rename.UndoneMaps                41542891                       # Number of HB maps that are undone due to squashing
system.cpu0.rename.serializingInsts              1706                       # count of serializing insts renamed
system.cpu0.rename.tempSerializingInsts          2376                       # count of temporary serializing insts renamed
system.cpu0.rename.skidInsts                   913600                       # count of insts added to the skid buffer
system.cpu0.memDep0.insertedLoads            11929203                       # Number of loads inserted to the mem dependence unit.
system.cpu0.memDep0.insertedStores            8986596                       # Number of stores inserted to the mem dependence unit.
system.cpu0.memDep0.conflictingLoads           516906                       # Number of conflicting loads.
system.cpu0.memDep0.conflictingStores          219069                       # Number of conflicting stores.
system.cpu0.iq.iqInstsAdded                  92980833                       # Number of instructions added to the IQ (excludes non-spec)
system.cpu0.iq.iqNonSpecInstsAdded              61831                       # Number of non-speculative instructions added to the IQ
system.cpu0.iq.iqInstsIssued                 82863844                       # Number of instructions issued
system.cpu0.iq.iqSquashedInstsIssued           467921                       # Number of squashed instructions issued
system.cpu0.iq.iqSquashedInstsExamined       29235490                       # Number of squashed instructions iterated over during squash; mainly for profiling
system.cpu0.iq.iqSquashedOperandsExamined     42674053                       # Number of squashed operands that are examined and possibly removed from graph
system.cpu0.iq.iqSquashedNonSpecRemoved         61807                       # Number of squashed non-spec instructions that were removed
system.cpu0.iq.issued_per_cycle::samples     30534391                       # Number of insts issued each cycle
system.cpu0.iq.issued_per_cycle::mean        2.713787                       # Number of insts issued each cycle
system.cpu0.iq.issued_per_cycle::stdev       2.524246                       # Number of insts issued each cycle
system.cpu0.iq.issued_per_cycle::underflows            0      0.00%      0.00% # Number of insts issued each cycle
system.cpu0.iq.issued_per_cycle::0            9868671     32.32%     32.32% # Number of insts issued each cycle
system.cpu0.iq.issued_per_cycle::1            2846113      9.32%     41.64% # Number of insts issued each cycle
system.cpu0.iq.issued_per_cycle::2            3061099     10.03%     51.67% # Number of insts issued each cycle
system.cpu0.iq.issued_per_cycle::3            3095052     10.14%     61.80% # Number of insts issued each cycle
system.cpu0.iq.issued_per_cycle::4            3135188     10.27%     72.07% # Number of insts issued each cycle
system.cpu0.iq.issued_per_cycle::5            2783865      9.12%     81.19% # Number of insts issued each cycle
system.cpu0.iq.issued_per_cycle::6            3080422     10.09%     91.28% # Number of insts issued each cycle
system.cpu0.iq.issued_per_cycle::7            1644080      5.38%     96.66% # Number of insts issued each cycle
system.cpu0.iq.issued_per_cycle::8            1019901      3.34%    100.00% # Number of insts issued each cycle
system.cpu0.iq.issued_per_cycle::overflows            0      0.00%    100.00% # Number of insts issued each cycle
system.cpu0.iq.issued_per_cycle::min_value            0                       # Number of insts issued each cycle
system.cpu0.iq.issued_per_cycle::max_value            8                       # Number of insts issued each cycle
system.cpu0.iq.issued_per_cycle::total       30534391                       # Number of insts issued each cycle
system.cpu0.iq.fu_full::No_OpClass                  0      0.00%      0.00% # attempts to use FU when none available
system.cpu0.iq.fu_full::IntAlu                 802666     72.84%     72.84% # attempts to use FU when none available
system.cpu0.iq.fu_full::IntMult                     0      0.00%     72.84% # attempts to use FU when none available
system.cpu0.iq.fu_full::IntDiv                      0      0.00%     72.84% # attempts to use FU when none available
system.cpu0.iq.fu_full::FloatAdd                14373      1.30%     74.14% # attempts to use FU when none available
system.cpu0.iq.fu_full::FloatCmp                    0      0.00%     74.14% # attempts to use FU when none available
system.cpu0.iq.fu_full::FloatCvt                    0      0.00%     74.14% # attempts to use FU when none available
system.cpu0.iq.fu_full::FloatMult                   0      0.00%     74.14% # attempts to use FU when none available
system.cpu0.iq.fu_full::FloatMultAcc                0      0.00%     74.14% # attempts to use FU when none available
system.cpu0.iq.fu_full::FloatDiv                    0      0.00%     74.14% # attempts to use FU when none available
system.cpu0.iq.fu_full::FloatMisc                   0      0.00%     74.14% # attempts to use FU when none available
system.cpu0.iq.fu_full::FloatSqrt                   0      0.00%     74.14% # attempts to use FU when none available
system.cpu0.iq.fu_full::SimdAdd                     0      0.00%     74.14% # attempts to use FU when none available
system.cpu0.iq.fu_full::SimdAddAcc                  0      0.00%     74.14% # attempts to use FU when none available
system.cpu0.iq.fu_full::SimdAlu                     0      0.00%     74.14% # attempts to use FU when none available
system.cpu0.iq.fu_full::SimdCmp                     0      0.00%     74.14% # attempts to use FU when none available
system.cpu0.iq.fu_full::SimdCvt                     0      0.00%     74.14% # attempts to use FU when none available
system.cpu0.iq.fu_full::SimdMisc                    0      0.00%     74.14% # attempts to use FU when none available
system.cpu0.iq.fu_full::SimdMult                    0      0.00%     74.14% # attempts to use FU when none available
system.cpu0.iq.fu_full::SimdMultAcc                 0      0.00%     74.14% # attempts to use FU when none available
system.cpu0.iq.fu_full::SimdShift                   0      0.00%     74.14% # attempts to use FU when none available
system.cpu0.iq.fu_full::SimdShiftAcc                0      0.00%     74.14% # attempts to use FU when none available
system.cpu0.iq.fu_full::SimdSqrt                    0      0.00%     74.14% # attempts to use FU when none available
system.cpu0.iq.fu_full::SimdFloatAdd                0      0.00%     74.14% # attempts to use FU when none available
system.cpu0.iq.fu_full::SimdFloatAlu                0      0.00%     74.14% # attempts to use FU when none available
system.cpu0.iq.fu_full::SimdFloatCmp                0      0.00%     74.14% # attempts to use FU when none available
system.cpu0.iq.fu_full::SimdFloatCvt                0      0.00%     74.14% # attempts to use FU when none available
system.cpu0.iq.fu_full::SimdFloatDiv                0      0.00%     74.14% # attempts to use FU when none available
system.cpu0.iq.fu_full::SimdFloatMisc               0      0.00%     74.14% # attempts to use FU when none available
system.cpu0.iq.fu_full::SimdFloatMult               0      0.00%     74.14% # attempts to use FU when none available
system.cpu0.iq.fu_full::SimdFloatMultAcc            0      0.00%     74.14% # attempts to use FU when none available
system.cpu0.iq.fu_full::SimdFloatSqrt               0      0.00%     74.14% # attempts to use FU when none available
system.cpu0.iq.fu_full::MemRead                108074      9.81%     83.95% # attempts to use FU when none available
system.cpu0.iq.fu_full::MemWrite                85274      7.74%     91.69% # attempts to use FU when none available
system.cpu0.iq.fu_full::FloatMemRead              578      0.05%     91.74% # attempts to use FU when none available
system.cpu0.iq.fu_full::FloatMemWrite           91003      8.26%    100.00% # attempts to use FU when none available
system.cpu0.iq.fu_full::IprAccess                   0      0.00%    100.00% # attempts to use FU when none available
system.cpu0.iq.fu_full::InstPrefetch                0      0.00%    100.00% # attempts to use FU when none available
system.cpu0.iq.FU_type_0::No_OpClass           507858      0.61%      0.61% # Type of FU issued
system.cpu0.iq.FU_type_0::IntAlu             62580431     75.52%     76.13% # Type of FU issued
system.cpu0.iq.FU_type_0::IntMult               51524      0.06%     76.20% # Type of FU issued
system.cpu0.iq.FU_type_0::IntDiv                88068      0.11%     76.30% # Type of FU issued
system.cpu0.iq.FU_type_0::FloatAdd            1190648      1.44%     77.74% # Type of FU issued
system.cpu0.iq.FU_type_0::FloatCmp                  0      0.00%     77.74% # Type of FU issued
system.cpu0.iq.FU_type_0::FloatCvt                  0      0.00%     77.74% # Type of FU issued
system.cpu0.iq.FU_type_0::FloatMult                 0      0.00%     77.74% # Type of FU issued
system.cpu0.iq.FU_type_0::FloatMultAcc              0      0.00%     77.74% # Type of FU issued
system.cpu0.iq.FU_type_0::FloatDiv                  0      0.00%     77.74% # Type of FU issued
system.cpu0.iq.FU_type_0::FloatMisc                 0      0.00%     77.74% # Type of FU issued
system.cpu0.iq.FU_type_0::FloatSqrt                 0      0.00%     77.74% # Type of FU issued
system.cpu0.iq.FU_type_0::SimdAdd                   0      0.00%     77.74% # Type of FU issued
system.cpu0.iq.FU_type_0::SimdAddAcc                0      0.00%     77.74% # Type of FU issued
system.cpu0.iq.FU_type_0::SimdAlu                   0      0.00%     77.74% # Type of FU issued
system.cpu0.iq.FU_type_0::SimdCmp                   0      0.00%     77.74% # Type of FU issued
system.cpu0.iq.FU_type_0::SimdCvt                   0      0.00%     77.74% # Type of FU issued
system.cpu0.iq.FU_type_0::SimdMisc                  0      0.00%     77.74% # Type of FU issued
system.cpu0.iq.FU_type_0::SimdMult                  0      0.00%     77.74% # Type of FU issued
system.cpu0.iq.FU_type_0::SimdMultAcc               0      0.00%     77.74% # Type of FU issued
system.cpu0.iq.FU_type_0::SimdShift                 0      0.00%     77.74% # Type of FU issued
system.cpu0.iq.FU_type_0::SimdShiftAcc              0      0.00%     77.74% # Type of FU issued
system.cpu0.iq.FU_type_0::SimdSqrt                  0      0.00%     77.74% # Type of FU issued
system.cpu0.iq.FU_type_0::SimdFloatAdd              0      0.00%     77.74% # Type of FU issued
system.cpu0.iq.FU_type_0::SimdFloatAlu              0      0.00%     77.74% # Type of FU issued
system.cpu0.iq.FU_type_0::SimdFloatCmp              0      0.00%     77.74% # Type of FU issued
system.cpu0.iq.FU_type_0::SimdFloatCvt              0      0.00%     77.74% # Type of FU issued
system.cpu0.iq.FU_type_0::SimdFloatDiv              0      0.00%     77.74% # Type of FU issued
system.cpu0.iq.FU_type_0::SimdFloatMisc             0      0.00%     77.74% # Type of FU issued
system.cpu0.iq.FU_type_0::SimdFloatMult             0      0.00%     77.74% # Type of FU issued
system.cpu0.iq.FU_type_0::SimdFloatMultAcc            0      0.00%     77.74% # Type of FU issued
system.cpu0.iq.FU_type_0::SimdFloatSqrt             0      0.00%     77.74% # Type of FU issued
system.cpu0.iq.FU_type_0::MemRead            10141907     12.24%     89.98% # Type of FU issued
system.cpu0.iq.FU_type_0::MemWrite            7603880      9.18%     99.16% # Type of FU issued
system.cpu0.iq.FU_type_0::FloatMemRead         407093      0.49%     99.65% # Type of FU issued
system.cpu0.iq.FU_type_0::FloatMemWrite        292435      0.35%    100.00% # Type of FU issued
system.cpu0.iq.FU_type_0::IprAccess                 0      0.00%    100.00% # Type of FU issued
system.cpu0.iq.FU_type_0::InstPrefetch              0      0.00%    100.00% # Type of FU issued
system.cpu0.iq.FU_type_0::total              82863844                       # Type of FU issued
system.cpu0.iq.rate                          2.713761                       # Inst issue rate
system.cpu0.iq.fu_busy_cnt                    1101968                       # FU busy when requested
system.cpu0.iq.fu_busy_rate                  0.013299                       # FU busy rate (busy events/executed inst)
system.cpu0.iq.int_inst_queue_reads         193789606                       # Number of integer instruction queue reads
system.cpu0.iq.int_inst_queue_writes        119108024                       # Number of integer instruction queue writes
system.cpu0.iq.int_inst_queue_wakeup_accesses     77293406                       # Number of integer instruction queue wakeup accesses
system.cpu0.iq.fp_inst_queue_reads            4042366                       # Number of floating instruction queue reads
system.cpu0.iq.fp_inst_queue_writes           3171213                       # Number of floating instruction queue writes
system.cpu0.iq.fp_inst_queue_wakeup_accesses      1829864                       # Number of floating instruction queue wakeup accesses
system.cpu0.iq.vec_inst_queue_reads                 0                       # Number of vector instruction queue reads
system.cpu0.iq.vec_inst_queue_writes                0                       # Number of vector instruction queue writes
system.cpu0.iq.vec_inst_queue_wakeup_accesses            0                       # Number of vector instruction queue wakeup accesses
system.cpu0.iq.int_alu_accesses              81417863                       # Number of integer alu accesses
system.cpu0.iq.fp_alu_accesses                2040091                       # Number of floating point alu accesses
system.cpu0.iq.vec_alu_accesses                     0                       # Number of vector alu accesses
system.cpu0.iew.lsq.thread0.forwLoads         1273378                       # Number of loads that had data forwarded from stores
system.cpu0.iew.lsq.thread0.invAddrLoads            0                       # Number of loads ignored due to an invalid address
system.cpu0.iew.lsq.thread0.squashedLoads      4216217                       # Number of loads squashed
system.cpu0.iew.lsq.thread0.ignoredResponses         9758                       # Number of memory responses ignored because the instruction is squashed
system.cpu0.iew.lsq.thread0.memOrderViolation         2986                       # Number of memory ordering violations
system.cpu0.iew.lsq.thread0.squashedStores      2654620                       # Number of stores squashed
system.cpu0.iew.lsq.thread0.invAddrSwpfs            0                       # Number of software prefetches ignored due to an invalid address
system.cpu0.iew.lsq.thread0.blockedLoads            0                       # Number of blocked loads due to partial load-store forwarding
system.cpu0.iew.lsq.thread0.rescheduledLoads          136                       # Number of loads that were rescheduled
system.cpu0.iew.lsq.thread0.cacheBlocked            0                       # Number of times an access to memory failed due to the cache being blocked
system.cpu0.iew.iewIdleCycles                       0                       # Number of cycles IEW is idle
system.cpu0.iew.iewSquashCycles               1086885                       # Number of cycles IEW is squashing
system.cpu0.iew.iewBlockCycles                3314211                       # Number of cycles IEW is blocking
system.cpu0.iew.iewUnblockCycles                 2185                       # Number of cycles IEW is unblocking
system.cpu0.iew.iewDispatchedInsts           93042664                       # Number of instructions dispatched to IQ
system.cpu0.iew.iewDispSquashedInsts            17552                       # Number of squashed instructions skipped by dispatch
system.cpu0.iew.iewDispLoadInsts             11929203                       # Number of dispatched load instructions
system.cpu0.iew.iewDispStoreInsts             8986596                       # Number of dispatched store instructions
system.cpu0.iew.iewDispNonSpecInsts             22119                       # Number of dispatched non-speculative instructions
system.cpu0.iew.iewIQFullEvents                   130                       # Number of times the IQ has become full, causing a stall
system.cpu0.iew.iewLSQFullEvents                 1936                       # Number of times the LSQ has become full, causing a stall
system.cpu0.iew.memOrderViolationEvents          2986                       # Number of memory order violations
system.cpu0.iew.predictedTakenIncorrect        297048                       # Number of branches that were predicted taken incorrectly
system.cpu0.iew.predictedNotTakenIncorrect      1131626                       # Number of branches that were predicted not taken incorrectly
system.cpu0.iew.branchMispredicts             1428674                       # Number of branch mispredicts detected at execute
system.cpu0.iew.iewExecutedInsts             80271045                       # Number of executed instructions
system.cpu0.iew.iewExecLoadInsts             10000718                       # Number of load instructions executed
system.cpu0.iew.iewExecSquashedInsts          2592803                       # Number of squashed instructions skipped in execute
system.cpu0.iew.exec_swp                            0                       # number of swp insts executed
system.cpu0.iew.exec_nop                            0                       # number of nop insts executed
system.cpu0.iew.exec_refs                    17541840                       # number of memory reference insts executed
system.cpu0.iew.exec_branches                 8644591                       # Number of branches executed
system.cpu0.iew.exec_stores                   7541122                       # Number of stores executed
system.cpu0.iew.exec_rate                    2.628848                       # Inst execution rate
system.cpu0.iew.wb_sent                      79739218                       # cumulative count of insts sent to commit
system.cpu0.iew.wb_count                     79123270                       # cumulative count of insts written-back
system.cpu0.iew.wb_producers                 55198022                       # num instructions producing a value
system.cpu0.iew.wb_consumers                 86487923                       # num instructions consuming a value
system.cpu0.iew.wb_rate                      2.591259                       # insts written-back per cycle
system.cpu0.iew.wb_fanout                    0.638217                       # average fanout of values written-back
system.cpu0.commit.commitSquashedInsts       29235830                       # The number of squashed insts skipped by commit
system.cpu0.commit.commitNonSpecStalls             24                       # The number of times commit has been forced to stall to communicate backwards
system.cpu0.commit.branchMispredicts          1086214                       # The number of times a branch was mispredicted
system.cpu0.commit.committed_per_cycle::samples     26136958                       # Number of insts commited each cycle
system.cpu0.commit.committed_per_cycle::mean     2.441263                       # Number of insts commited each cycle
system.cpu0.commit.committed_per_cycle::stdev     2.734755                       # Number of insts commited each cycle
system.cpu0.commit.committed_per_cycle::underflows            0      0.00%      0.00% # Number of insts commited each cycle
system.cpu0.commit.committed_per_cycle::0      9431795     36.09%     36.09% # Number of insts commited each cycle
system.cpu0.commit.committed_per_cycle::1      3729425     14.27%     50.35% # Number of insts commited each cycle
system.cpu0.commit.committed_per_cycle::2      2661995     10.18%     60.54% # Number of insts commited each cycle
system.cpu0.commit.committed_per_cycle::3      3573518     13.67%     74.21% # Number of insts commited each cycle
system.cpu0.commit.committed_per_cycle::4      1111249      4.25%     78.46% # Number of insts commited each cycle
system.cpu0.commit.committed_per_cycle::5      1122751      4.30%     82.76% # Number of insts commited each cycle
system.cpu0.commit.committed_per_cycle::6       794567      3.04%     85.80% # Number of insts commited each cycle
system.cpu0.commit.committed_per_cycle::7       486201      1.86%     87.66% # Number of insts commited each cycle
system.cpu0.commit.committed_per_cycle::8      3225457     12.34%    100.00% # Number of insts commited each cycle
system.cpu0.commit.committed_per_cycle::overflows            0      0.00%    100.00% # Number of insts commited each cycle
system.cpu0.commit.committed_per_cycle::min_value            0                       # Number of insts commited each cycle
system.cpu0.commit.committed_per_cycle::max_value            8                       # Number of insts commited each cycle
system.cpu0.commit.committed_per_cycle::total     26136958                       # Number of insts commited each cycle
system.cpu0.commit.committedInsts            33712028                       # Number of instructions committed
system.cpu0.commit.committedOps              63807185                       # Number of ops (including micro ops) committed
system.cpu0.commit.swp_count                        0                       # Number of s/w prefetches committed
system.cpu0.commit.refs                      14044964                       # Number of memory references committed
system.cpu0.commit.loads                      7712987                       # Number of loads committed
system.cpu0.commit.membars                          0                       # Number of memory barriers committed
system.cpu0.commit.branches                   7364179                       # Number of branches committed
system.cpu0.commit.vec_insts                        0                       # Number of committed Vector instructions.
system.cpu0.commit.fp_insts                   1321143                       # Number of committed floating point instructions.
system.cpu0.commit.int_insts                 62814780                       # Number of committed integer instructions.
system.cpu0.commit.function_calls              469215                       # Number of function calls committed.
system.cpu0.commit.op_class_0::No_OpClass       263103      0.41%      0.41% # Class of committed instruction
system.cpu0.commit.op_class_0::IntAlu        48383834     75.83%     76.24% # Class of committed instruction
system.cpu0.commit.op_class_0::IntMult          40402      0.06%     76.30% # Class of committed instruction
system.cpu0.commit.op_class_0::IntDiv           76902      0.12%     76.42% # Class of committed instruction
system.cpu0.commit.op_class_0::FloatAdd        997980      1.56%     77.99% # Class of committed instruction
system.cpu0.commit.op_class_0::FloatCmp             0      0.00%     77.99% # Class of committed instruction
system.cpu0.commit.op_class_0::FloatCvt             0      0.00%     77.99% # Class of committed instruction
system.cpu0.commit.op_class_0::FloatMult            0      0.00%     77.99% # Class of committed instruction
system.cpu0.commit.op_class_0::FloatMultAcc            0      0.00%     77.99% # Class of committed instruction
system.cpu0.commit.op_class_0::FloatDiv             0      0.00%     77.99% # Class of committed instruction
system.cpu0.commit.op_class_0::FloatMisc            0      0.00%     77.99% # Class of committed instruction
system.cpu0.commit.op_class_0::FloatSqrt            0      0.00%     77.99% # Class of committed instruction
system.cpu0.commit.op_class_0::SimdAdd              0      0.00%     77.99% # Class of committed instruction
system.cpu0.commit.op_class_0::SimdAddAcc            0      0.00%     77.99% # Class of committed instruction
system.cpu0.commit.op_class_0::SimdAlu              0      0.00%     77.99% # Class of committed instruction
system.cpu0.commit.op_class_0::SimdCmp              0      0.00%     77.99% # Class of committed instruction
system.cpu0.commit.op_class_0::SimdCvt              0      0.00%     77.99% # Class of committed instruction
system.cpu0.commit.op_class_0::SimdMisc             0      0.00%     77.99% # Class of committed instruction
system.cpu0.commit.op_class_0::SimdMult             0      0.00%     77.99% # Class of committed instruction
system.cpu0.commit.op_class_0::SimdMultAcc            0      0.00%     77.99% # Class of committed instruction
system.cpu0.commit.op_class_0::SimdShift            0      0.00%     77.99% # Class of committed instruction
system.cpu0.commit.op_class_0::SimdShiftAcc            0      0.00%     77.99% # Class of committed instruction
system.cpu0.commit.op_class_0::SimdSqrt             0      0.00%     77.99% # Class of committed instruction
system.cpu0.commit.op_class_0::SimdFloatAdd            0      0.00%     77.99% # Class of committed instruction
system.cpu0.commit.op_class_0::SimdFloatAlu            0      0.00%     77.99% # Class of committed instruction
system.cpu0.commit.op_class_0::SimdFloatCmp            0      0.00%     77.99% # Class of committed instruction
system.cpu0.commit.op_class_0::SimdFloatCvt            0      0.00%     77.99% # Class of committed instruction
system.cpu0.commit.op_class_0::SimdFloatDiv            0      0.00%     77.99% # Class of committed instruction
system.cpu0.commit.op_class_0::SimdFloatMisc            0      0.00%     77.99% # Class of committed instruction
system.cpu0.commit.op_class_0::SimdFloatMult            0      0.00%     77.99% # Class of committed instruction
system.cpu0.commit.op_class_0::SimdFloatMultAcc            0      0.00%     77.99% # Class of committed instruction
system.cpu0.commit.op_class_0::SimdFloatSqrt            0      0.00%     77.99% # Class of committed instruction
system.cpu0.commit.op_class_0::MemRead        7433785     11.65%     89.64% # Class of committed instruction
system.cpu0.commit.op_class_0::MemWrite       6331977      9.92%     99.56% # Class of committed instruction
system.cpu0.commit.op_class_0::FloatMemRead       279202      0.44%    100.00% # Class of committed instruction
system.cpu0.commit.op_class_0::FloatMemWrite            0      0.00%    100.00% # Class of committed instruction
system.cpu0.commit.op_class_0::IprAccess            0      0.00%    100.00% # Class of committed instruction
system.cpu0.commit.op_class_0::InstPrefetch            0      0.00%    100.00% # Class of committed instruction
system.cpu0.commit.op_class_0::total         63807185                       # Class of committed instruction
system.cpu0.commit.bw_lim_events              3225457                       # number cycles where commit BW limit reached
system.cpu0.rob.rob_reads                   115954516                       # The number of ROB reads
system.cpu0.rob.rob_writes                  190568083                       # The number of ROB writes
system.cpu0.timesIdled                             33                       # Number of times that the entire CPU went into an idle state and unscheduled itself
system.cpu0.idleCycles                            297                       # Total number of cycles that the CPU has spent unscheduled due to idling
system.cpu0.committedInsts                   33712028                       # Number of Instructions Simulated
system.cpu0.committedOps                     63807185                       # Number of Ops (including micro ops) Simulated
system.cpu0.cpi                              0.905751                       # CPI: Cycles Per Instruction
system.cpu0.cpi_total                        0.905751                       # CPI: Total CPI of All Threads
system.cpu0.ipc                              1.104057                       # IPC: Instructions Per Cycle
system.cpu0.ipc_total                        1.104057                       # IPC: Total IPC of All Threads
system.cpu0.int_regfile_reads               116062660                       # number of integer regfile reads
system.cpu0.int_regfile_writes               61918760                       # number of integer regfile writes
system.cpu0.fp_regfile_reads                  2575120                       # number of floating regfile reads
system.cpu0.fp_regfile_writes                 1270800                       # number of floating regfile writes
system.cpu0.cc_regfile_reads                 40065441                       # number of cc regfile reads
system.cpu0.cc_regfile_writes                21044441                       # number of cc regfile writes
system.cpu0.misc_regfile_reads               35329047                       # number of misc regfile reads
system.cpu0.dcache.tags.pwrStateResidencyTicks::UNDEFINED  15267344125                       # Cumulative time (in ticks) in various power states
system.cpu0.dcache.tags.replacements             5265                       # number of replacements
system.cpu0.dcache.tags.tagsinuse                1024                       # Cycle average of tags in use
system.cpu0.dcache.tags.total_refs             485859                       # Total number of references to valid blocks.
system.cpu0.dcache.tags.sampled_refs             5265                       # Sample count of references to valid blocks.
system.cpu0.dcache.tags.avg_refs            92.280912                       # Average number of references to valid blocks.
system.cpu0.dcache.tags.warmup_cycle                0                       # Cycle when the warmup percentage was hit.
system.cpu0.dcache.tags.occ_blocks::cpu0.data         1024                       # Average occupied blocks per requestor
system.cpu0.dcache.tags.occ_percent::cpu0.data            1                       # Average percentage of cache occupancy
system.cpu0.dcache.tags.occ_percent::total            1                       # Average percentage of cache occupancy
system.cpu0.dcache.tags.occ_task_id_blocks::1024         1024                       # Occupied blocks per task id
system.cpu0.dcache.tags.age_task_id_blocks_1024::0            4                       # Occupied blocks per task id
system.cpu0.dcache.tags.age_task_id_blocks_1024::1           32                       # Occupied blocks per task id
system.cpu0.dcache.tags.age_task_id_blocks_1024::2          273                       # Occupied blocks per task id
system.cpu0.dcache.tags.age_task_id_blocks_1024::3          484                       # Occupied blocks per task id
system.cpu0.dcache.tags.age_task_id_blocks_1024::4          231                       # Occupied blocks per task id
system.cpu0.dcache.tags.occ_task_id_percent::1024            1                       # Percentage of cache occupancy per task id
system.cpu0.dcache.tags.tag_accesses         59722861                       # Number of tag accesses
system.cpu0.dcache.tags.data_accesses        59722861                       # Number of data accesses
system.cpu0.dcache.pwrStateResidencyTicks::UNDEFINED  15267344125                       # Cumulative time (in ticks) in various power states
system.cpu0.dcache.ReadReq_hits::cpu0.data      8589821                       # number of ReadReq hits
system.cpu0.dcache.ReadReq_hits::total        8589821                       # number of ReadReq hits
system.cpu0.dcache.WriteReq_hits::cpu0.data      6331801                       # number of WriteReq hits
system.cpu0.dcache.WriteReq_hits::total       6331801                       # number of WriteReq hits
system.cpu0.dcache.demand_hits::cpu0.data     14921622                       # number of demand (read+write) hits
system.cpu0.dcache.demand_hits::total        14921622                       # number of demand (read+write) hits
system.cpu0.dcache.overall_hits::cpu0.data     14921622                       # number of overall hits
system.cpu0.dcache.overall_hits::total       14921622                       # number of overall hits
system.cpu0.dcache.ReadReq_misses::cpu0.data         4398                       # number of ReadReq misses
system.cpu0.dcache.ReadReq_misses::total         4398                       # number of ReadReq misses
system.cpu0.dcache.WriteReq_misses::cpu0.data         3379                       # number of WriteReq misses
system.cpu0.dcache.WriteReq_misses::total         3379                       # number of WriteReq misses
system.cpu0.dcache.demand_misses::cpu0.data         7777                       # number of demand (read+write) misses
system.cpu0.dcache.demand_misses::total          7777                       # number of demand (read+write) misses
system.cpu0.dcache.overall_misses::cpu0.data         7777                       # number of overall misses
system.cpu0.dcache.overall_misses::total         7777                       # number of overall misses
system.cpu0.dcache.ReadReq_miss_latency::cpu0.data     65192500                       # number of ReadReq miss cycles
system.cpu0.dcache.ReadReq_miss_latency::total     65192500                       # number of ReadReq miss cycles
system.cpu0.dcache.WriteReq_miss_latency::cpu0.data    632237000                       # number of WriteReq miss cycles
system.cpu0.dcache.WriteReq_miss_latency::total    632237000                       # number of WriteReq miss cycles
system.cpu0.dcache.demand_miss_latency::cpu0.data    697429500                       # number of demand (read+write) miss cycles
system.cpu0.dcache.demand_miss_latency::total    697429500                       # number of demand (read+write) miss cycles
system.cpu0.dcache.overall_miss_latency::cpu0.data    697429500                       # number of overall miss cycles
system.cpu0.dcache.overall_miss_latency::total    697429500                       # number of overall miss cycles
system.cpu0.dcache.ReadReq_accesses::cpu0.data      8594219                       # number of ReadReq accesses(hits+misses)
system.cpu0.dcache.ReadReq_accesses::total      8594219                       # number of ReadReq accesses(hits+misses)
system.cpu0.dcache.WriteReq_accesses::cpu0.data      6335180                       # number of WriteReq accesses(hits+misses)
system.cpu0.dcache.WriteReq_accesses::total      6335180                       # number of WriteReq accesses(hits+misses)
system.cpu0.dcache.demand_accesses::cpu0.data     14929399                       # number of demand (read+write) accesses
system.cpu0.dcache.demand_accesses::total     14929399                       # number of demand (read+write) accesses
system.cpu0.dcache.overall_accesses::cpu0.data     14929399                       # number of overall (read+write) accesses
system.cpu0.dcache.overall_accesses::total     14929399                       # number of overall (read+write) accesses
system.cpu0.dcache.ReadReq_miss_rate::cpu0.data     0.000512                       # miss rate for ReadReq accesses
system.cpu0.dcache.ReadReq_miss_rate::total     0.000512                       # miss rate for ReadReq accesses
system.cpu0.dcache.WriteReq_miss_rate::cpu0.data     0.000533                       # miss rate for WriteReq accesses
system.cpu0.dcache.WriteReq_miss_rate::total     0.000533                       # miss rate for WriteReq accesses
system.cpu0.dcache.demand_miss_rate::cpu0.data     0.000521                       # miss rate for demand accesses
system.cpu0.dcache.demand_miss_rate::total     0.000521                       # miss rate for demand accesses
system.cpu0.dcache.overall_miss_rate::cpu0.data     0.000521                       # miss rate for overall accesses
system.cpu0.dcache.overall_miss_rate::total     0.000521                       # miss rate for overall accesses
system.cpu0.dcache.ReadReq_avg_miss_latency::cpu0.data 14823.215098                       # average ReadReq miss latency
system.cpu0.dcache.ReadReq_avg_miss_latency::total 14823.215098                       # average ReadReq miss latency
system.cpu0.dcache.WriteReq_avg_miss_latency::cpu0.data 187107.724179                       # average WriteReq miss latency
system.cpu0.dcache.WriteReq_avg_miss_latency::total 187107.724179                       # average WriteReq miss latency
system.cpu0.dcache.demand_avg_miss_latency::cpu0.data 89678.474990                       # average overall miss latency
system.cpu0.dcache.demand_avg_miss_latency::total 89678.474990                       # average overall miss latency
system.cpu0.dcache.overall_avg_miss_latency::cpu0.data 89678.474990                       # average overall miss latency
system.cpu0.dcache.overall_avg_miss_latency::total 89678.474990                       # average overall miss latency
system.cpu0.dcache.blocked_cycles::no_mshrs            0                       # number of cycles access was blocked
system.cpu0.dcache.blocked_cycles::no_targets            0                       # number of cycles access was blocked
system.cpu0.dcache.blocked::no_mshrs                0                       # number of cycles access was blocked
system.cpu0.dcache.blocked::no_targets              0                       # number of cycles access was blocked
system.cpu0.dcache.avg_blocked_cycles::no_mshrs          nan                       # average number of cycles each access was blocked
system.cpu0.dcache.avg_blocked_cycles::no_targets          nan                       # average number of cycles each access was blocked
system.cpu0.dcache.writebacks::writebacks         4734                       # number of writebacks
system.cpu0.dcache.writebacks::total             4734                       # number of writebacks
system.cpu0.dcache.ReadReq_mshr_hits::cpu0.data         2461                       # number of ReadReq MSHR hits
system.cpu0.dcache.ReadReq_mshr_hits::total         2461                       # number of ReadReq MSHR hits
system.cpu0.dcache.WriteReq_mshr_hits::cpu0.data           51                       # number of WriteReq MSHR hits
system.cpu0.dcache.WriteReq_mshr_hits::total           51                       # number of WriteReq MSHR hits
system.cpu0.dcache.demand_mshr_hits::cpu0.data         2512                       # number of demand (read+write) MSHR hits
system.cpu0.dcache.demand_mshr_hits::total         2512                       # number of demand (read+write) MSHR hits
system.cpu0.dcache.overall_mshr_hits::cpu0.data         2512                       # number of overall MSHR hits
system.cpu0.dcache.overall_mshr_hits::total         2512                       # number of overall MSHR hits
system.cpu0.dcache.ReadReq_mshr_misses::cpu0.data         1937                       # number of ReadReq MSHR misses
system.cpu0.dcache.ReadReq_mshr_misses::total         1937                       # number of ReadReq MSHR misses
system.cpu0.dcache.WriteReq_mshr_misses::cpu0.data         3328                       # number of WriteReq MSHR misses
[...]
system.l2.ReadExReq_miss_rate::cpu0.data     0.999099                       # miss rate for ReadExReq accesses
system.l2.ReadExReq_miss_rate::total         0.999099                       # miss rate for ReadExReq accesses
system.l2.ReadCleanReq_miss_rate::cpu0.inst     0.000620                       # miss rate for ReadCleanReq accesses
system.l2.ReadCleanReq_miss_rate::total      0.000620                       # miss rate for ReadCleanReq accesses
system.l2.ReadSharedReq_miss_rate::cpu0.data     0.030459                       # miss rate for ReadSharedReq accesses
system.l2.ReadSharedReq_miss_rate::total     0.030459                       # miss rate for ReadSharedReq accesses
system.l2.demand_miss_rate::cpu0.inst        0.000620                       # miss rate for demand accesses
system.l2.demand_miss_rate::cpu0.data        0.642735                       # miss rate for demand accesses
system.l2.demand_miss_rate::total            0.492149                       # miss rate for demand accesses
system.l2.overall_miss_rate::cpu0.inst       0.000620                       # miss rate for overall accesses
system.l2.overall_miss_rate::cpu0.data       0.642735                       # miss rate for overall accesses
system.l2.overall_miss_rate::total           0.492149                       # miss rate for overall accesses
system.l2.ReadExReq_avg_miss_latency::cpu0.data 185705.413534                       # average ReadExReq miss latency
system.l2.ReadExReq_avg_miss_latency::total 185705.413534                       # average ReadExReq miss latency
system.l2.ReadCleanReq_avg_miss_latency::cpu0.inst        90000                       # average ReadCleanReq miss latency
system.l2.ReadCleanReq_avg_miss_latency::total        90000                       # average ReadCleanReq miss latency
system.l2.ReadSharedReq_avg_miss_latency::cpu0.data 119033.898305                       # average ReadSharedReq miss latency
system.l2.ReadSharedReq_avg_miss_latency::total 119033.898305                       # average ReadSharedReq miss latency
system.l2.demand_avg_miss_latency::cpu0.inst        90000                       # average overall miss latency
system.l2.demand_avg_miss_latency::cpu0.data 184542.996454                       # average overall miss latency
system.l2.demand_avg_miss_latency::total 184515.066470                       # average overall miss latency
system.l2.overall_avg_miss_latency::cpu0.inst        90000                       # average overall miss latency
system.l2.overall_avg_miss_latency::cpu0.data 184542.996454                       # average overall miss latency
system.l2.overall_avg_miss_latency::total 184515.066470                       # average overall miss latency
system.l2.blocked_cycles::no_mshrs                  0                       # number of cycles access was blocked
system.l2.blocked_cycles::no_targets                0                       # number of cycles access was blocked
system.l2.blocked::no_mshrs                         0                       # number of cycles access was blocked
system.l2.blocked::no_targets                       0                       # number of cycles access was blocked
system.l2.avg_blocked_cycles::no_mshrs            nan                       # average number of cycles each access was blocked
system.l2.avg_blocked_cycles::no_targets          nan                       # average number of cycles each access was blocked
system.l2.writebacks::writebacks                    9                       # number of writebacks
system.l2.writebacks::total                         9                       # number of writebacks
system.l2.ReadExReq_mshr_misses::cpu0.data         3325                       # number of ReadExReq MSHR misses
system.l2.ReadExReq_mshr_misses::total           3325                       # number of ReadExReq MSHR misses
system.l2.ReadCleanReq_mshr_misses::cpu0.inst            1                       # number of ReadCleanReq MSHR misses
system.l2.ReadCleanReq_mshr_misses::total            1                       # number of ReadCleanReq MSHR misses
system.l2.ReadSharedReq_mshr_misses::cpu0.data           59                       # number of ReadSharedReq MSHR misses
system.l2.ReadSharedReq_mshr_misses::total           59                       # number of ReadSharedReq MSHR misses
system.l2.demand_mshr_misses::cpu0.inst             1                       # number of demand (read+write) MSHR misses
system.l2.demand_mshr_misses::cpu0.data          3384                       # number of demand (read+write) MSHR misses
system.l2.demand_mshr_misses::total              3385                       # number of demand (read+write) MSHR misses
system.l2.overall_mshr_misses::cpu0.inst            1                       # number of overall MSHR misses
system.l2.overall_mshr_misses::cpu0.data         3384                       # number of overall MSHR misses
system.l2.overall_mshr_misses::total             3385                       # number of overall MSHR misses
system.l2.ReadExReq_mshr_miss_latency::cpu0.data    584220500                       # number of ReadExReq MSHR miss cycles
system.l2.ReadExReq_mshr_miss_latency::total    584220500                       # number of ReadExReq MSHR miss cycles
system.l2.ReadCleanReq_mshr_miss_latency::cpu0.inst        80000                       # number of ReadCleanReq MSHR miss cycles
system.l2.ReadCleanReq_mshr_miss_latency::total        80000                       # number of ReadCleanReq MSHR miss cycles
system.l2.ReadSharedReq_mshr_miss_latency::cpu0.data      6433000                       # number of ReadSharedReq MSHR miss cycles
system.l2.ReadSharedReq_mshr_miss_latency::total      6433000                       # number of ReadSharedReq MSHR miss cycles
system.l2.demand_mshr_miss_latency::cpu0.inst        80000                       # number of demand (read+write) MSHR miss cycles
system.l2.demand_mshr_miss_latency::cpu0.data    590653500                       # number of demand (read+write) MSHR miss cycles
system.l2.demand_mshr_miss_latency::total    590733500                       # number of demand (read+write) MSHR miss cycles
system.l2.overall_mshr_miss_latency::cpu0.inst        80000                       # number of overall MSHR miss cycles
system.l2.overall_mshr_miss_latency::cpu0.data    590653500                       # number of overall MSHR miss cycles
system.l2.overall_mshr_miss_latency::total    590733500                       # number of overall MSHR miss cycles
system.l2.ReadExReq_mshr_miss_rate::cpu0.data     0.999099                       # mshr miss rate for ReadExReq accesses
system.l2.ReadExReq_mshr_miss_rate::total     0.999099                       # mshr miss rate for ReadExReq accesses
system.l2.ReadCleanReq_mshr_miss_rate::cpu0.inst     0.000620                       # mshr miss rate for ReadCleanReq accesses
system.l2.ReadCleanReq_mshr_miss_rate::total     0.000620                       # mshr miss rate for ReadCleanReq accesses
system.l2.ReadSharedReq_mshr_miss_rate::cpu0.data     0.030459                       # mshr miss rate for ReadSharedReq accesses
system.l2.ReadSharedReq_mshr_miss_rate::total     0.030459                       # mshr miss rate for ReadSharedReq accesses
system.l2.demand_mshr_miss_rate::cpu0.inst     0.000620                       # mshr miss rate for demand accesses
system.l2.demand_mshr_miss_rate::cpu0.data     0.642735                       # mshr miss rate for demand accesses
system.l2.demand_mshr_miss_rate::total       0.492149                       # mshr miss rate for demand accesses
system.l2.overall_mshr_miss_rate::cpu0.inst     0.000620                       # mshr miss rate for overall accesses
system.l2.overall_mshr_miss_rate::cpu0.data     0.642735                       # mshr miss rate for overall accesses
system.l2.overall_mshr_miss_rate::total      0.492149                       # mshr miss rate for overall accesses
system.l2.ReadExReq_avg_mshr_miss_latency::cpu0.data 175705.413534                       # average ReadExReq mshr miss latency
system.l2.ReadExReq_avg_mshr_miss_latency::total 175705.413534                       # average ReadExReq mshr miss latency
system.l2.ReadCleanReq_avg_mshr_miss_latency::cpu0.inst        80000                       # average ReadCleanReq mshr miss latency
system.l2.ReadCleanReq_avg_mshr_miss_latency::total        80000                       # average ReadCleanReq mshr miss latency
system.l2.ReadSharedReq_avg_mshr_miss_latency::cpu0.data 109033.898305                       # average ReadSharedReq mshr miss latency
system.l2.ReadSharedReq_avg_mshr_miss_latency::total 109033.898305                       # average ReadSharedReq mshr miss latency
system.l2.demand_avg_mshr_miss_latency::cpu0.inst        80000                       # average overall mshr miss latency
system.l2.demand_avg_mshr_miss_latency::cpu0.data 174542.996454                       # average overall mshr miss latency
system.l2.demand_avg_mshr_miss_latency::total 174515.066470                       # average overall mshr miss latency
system.l2.overall_avg_mshr_miss_latency::cpu0.inst        80000                       # average overall mshr miss latency
system.l2.overall_avg_mshr_miss_latency::cpu0.data 174542.996454                       # average overall mshr miss latency
system.l2.overall_avg_mshr_miss_latency::total 174515.066470                       # average overall mshr miss latency
system.membus.snoop_filter.tot_requests          3416                       # Total number of requests made to the snoop filter.
system.membus.snoop_filter.hit_single_requests           31                       # Number of requests hitting in the snoop filter with a single holder of the requested data.
system.membus.snoop_filter.hit_multi_requests            0                       # Number of requests hitting in the snoop filter with multiple (>1) holders of the requested data.
system.membus.snoop_filter.tot_snoops               0                       # Total number of snoops made to the snoop filter.
system.membus.snoop_filter.hit_single_snoops            0                       # Number of snoops hitting in the snoop filter with a single holder of the requested data.
system.membus.snoop_filter.hit_multi_snoops            0                       # Number of snoops hitting in the snoop filter with multiple (>1) holders of the requested data.
system.membus.pwrStateResidencyTicks::UNDEFINED  15267344125                       # Cumulative time (in ticks) in various power states
system.membus.trans_dist::ReadResp                 60                       # Transaction distribution
system.membus.trans_dist::WritebackDirty            9                       # Transaction distribution
system.membus.trans_dist::CleanEvict               22                       # Transaction distribution
system.membus.trans_dist::ReadExReq              3325                       # Transaction distribution
system.membus.trans_dist::ReadExResp             3325                       # Transaction distribution
system.membus.trans_dist::ReadSharedReq            60                       # Transaction distribution
system.membus.pkt_count_system.l2.mem_side::system.mem_ctrls.port         6801                       # Packet count per connected master and slave (bytes)
system.membus.pkt_count_system.l2.mem_side::total         6801                       # Packet count per connected master and slave (bytes)
system.membus.pkt_count::total                   6801                       # Packet count per connected master and slave (bytes)
system.membus.pkt_size_system.l2.mem_side::system.mem_ctrls.port       217216                       # Cumulative packet size per connected master and slave (bytes)
system.membus.pkt_size_system.l2.mem_side::total       217216                       # Cumulative packet size per connected master and slave (bytes)
system.membus.pkt_size::total                  217216                       # Cumulative packet size per connected master and slave (bytes)
system.membus.snoops                                0                       # Total snoops (count)
system.membus.snoopTraffic                          0                       # Total snoop traffic (bytes)
system.membus.snoop_fanout::samples              3385                       # Request fanout histogram
system.membus.snoop_fanout::mean                    0                       # Request fanout histogram
system.membus.snoop_fanout::stdev                   0                       # Request fanout histogram
system.membus.snoop_fanout::underflows              0      0.00%      0.00% # Request fanout histogram
system.membus.snoop_fanout::0                    3385    100.00%    100.00% # Request fanout histogram
system.membus.snoop_fanout::1                       0      0.00%    100.00% # Request fanout histogram
system.membus.snoop_fanout::overflows               0      0.00%    100.00% # Request fanout histogram
system.membus.snoop_fanout::min_value               0                       # Request fanout histogram
system.membus.snoop_fanout::max_value               0                       # Request fanout histogram
system.membus.snoop_fanout::total                3385                       # Request fanout histogram
system.membus.reqLayer8.occupancy             4308000                       # Layer occupancy (ticks)
system.membus.reqLayer8.utilization               0.0                       # Layer utilization (%)
system.membus.respLayer1.occupancy           18592000                       # Layer occupancy (ticks)
system.membus.respLayer1.utilization              0.1                       # Layer utilization (%)
system.tol2bus.snoop_filter.tot_requests        13756                       # Total number of requests made to the snoop filter.
system.tol2bus.snoop_filter.hit_single_requests         6875                       # Number of requests hitting in the snoop filter with a single holder of the requested data.
system.tol2bus.snoop_filter.hit_multi_requests           14                       # Number of requests hitting in the snoop filter with multiple (>1) holders of the requested data.
system.tol2bus.snoop_filter.tot_snoops             10                       # Total number of snoops made to the snoop filter.
system.tol2bus.snoop_filter.hit_single_snoops           10                       # Number of snoops hitting in the snoop filter with a single holder of the requested data.
system.tol2bus.snoop_filter.hit_multi_snoops            0                       # Number of snoops hitting in the snoop filter with multiple (>1) holders of the requested data.
system.tol2bus.pwrStateResidencyTicks::UNDEFINED  15267344125                       # Cumulative time (in ticks) in various power states
system.tol2bus.trans_dist::ReadResp              3550                       # Transaction distribution
system.tol2bus.trans_dist::WritebackDirty         4743                       # Transaction distribution
system.tol2bus.trans_dist::WritebackClean         1613                       # Transaction distribution
system.tol2bus.trans_dist::CleanEvict             563                       # Transaction distribution
system.tol2bus.trans_dist::ReadExReq             3328                       # Transaction distribution
system.tol2bus.trans_dist::ReadExResp            3328                       # Transaction distribution
system.tol2bus.trans_dist::ReadCleanReq          1613                       # Transaction distribution
system.tol2bus.trans_dist::ReadSharedReq         1937                       # Transaction distribution
system.tol2bus.pkt_count_system.cpu0.icache.mem_side::system.l2.cpu_side         4839                       # Packet count per connected master and slave (bytes)
system.tol2bus.pkt_count_system.cpu0.dcache.mem_side::system.l2.cpu_side        15795                       # Packet count per connected master and slave (bytes)
system.tol2bus.pkt_count::total                 20634                       # Packet count per connected master and slave (bytes)
system.tol2bus.pkt_size_system.cpu0.icache.mem_side::system.l2.cpu_side       206464                       # Cumulative packet size per connected master and slave (bytes)
system.tol2bus.pkt_size_system.cpu0.dcache.mem_side::system.l2.cpu_side       639936                       # Cumulative packet size per connected master and slave (bytes)
system.tol2bus.pkt_size::total                 846400                       # Cumulative packet size per connected master and slave (bytes)
system.tol2bus.snoops                              41                       # Total snoops (count)
system.tol2bus.snoopTraffic                       576                       # Total snoop traffic (bytes)
system.tol2bus.snoop_fanout::samples             6919                       # Request fanout histogram
system.tol2bus.snoop_fanout::mean            0.003035                       # Request fanout histogram
system.tol2bus.snoop_fanout::stdev           0.055012                       # Request fanout histogram
system.tol2bus.snoop_fanout::underflows             0      0.00%      0.00% # Request fanout histogram
system.tol2bus.snoop_fanout::0                   6898     99.70%     99.70% # Request fanout histogram
system.tol2bus.snoop_fanout::1                     21      0.30%    100.00% # Request fanout histogram
system.tol2bus.snoop_fanout::2                      0      0.00%    100.00% # Request fanout histogram
system.tol2bus.snoop_fanout::3                      0      0.00%    100.00% # Request fanout histogram
system.tol2bus.snoop_fanout::4                      0      0.00%    100.00% # Request fanout histogram
system.tol2bus.snoop_fanout::5                      0      0.00%    100.00% # Request fanout histogram
system.tol2bus.snoop_fanout::6                      0      0.00%    100.00% # Request fanout histogram
system.tol2bus.snoop_fanout::7                      0      0.00%    100.00% # Request fanout histogram
system.tol2bus.snoop_fanout::8                      0      0.00%    100.00% # Request fanout histogram
system.tol2bus.snoop_fanout::9                      0      0.00%    100.00% # Request fanout histogram
system.tol2bus.snoop_fanout::10                     0      0.00%    100.00% # Request fanout histogram
system.tol2bus.snoop_fanout::11                     0      0.00%    100.00% # Request fanout histogram
system.tol2bus.snoop_fanout::12                     0      0.00%    100.00% # Request fanout histogram
system.tol2bus.snoop_fanout::13                     0      0.00%    100.00% # Request fanout histogram
system.tol2bus.snoop_fanout::14                     0      0.00%    100.00% # Request fanout histogram
system.tol2bus.snoop_fanout::15                     0      0.00%    100.00% # Request fanout histogram
system.tol2bus.snoop_fanout::16                     0      0.00%    100.00% # Request fanout histogram
system.tol2bus.snoop_fanout::overflows              0      0.00%    100.00% # Request fanout histogram
system.tol2bus.snoop_fanout::min_value              0                       # Request fanout histogram
system.tol2bus.snoop_fanout::max_value              1                       # Request fanout histogram
system.tol2bus.snoop_fanout::total               6919                       # Request fanout histogram
system.tol2bus.reqLayer0.occupancy           13225000                       # Layer occupancy (ticks)
system.tol2bus.reqLayer0.utilization              0.1                       # Layer utilization (%)
system.tol2bus.respLayer0.occupancy           2419500                       # Layer occupancy (ticks)
system.tol2bus.respLayer0.utilization             0.0                       # Layer utilization (%)
system.tol2bus.respLayer1.occupancy           7897999                       # Layer occupancy (ticks)
system.tol2bus.respLayer1.utilization             0.1                       # Layer utilization (%)

---------- End Simulation Statistics   ----------
