
---------- Begin Simulation Statistics ----------
sim_seconds                                  0.015267                       # Number of seconds simulated
sim_ticks                                 15267344125                       # Number of ticks simulated
final_tick                               5435174508500                       # Number of ticks from beginning of simulation (restored from checkpoints and never reset)
sim_freq                                 1000000000000                       # Frequency of simulated ticks
host_inst_rate                               69106182                       # Simulator instruction rate (inst/s)
host_op_rate                                128539705                       # Simulator op (including micro ops) rate (op/s)
host_tick_rate                              179886283                       # Simulator tick rate (ticks/s)
host_mem_usage                                2332532                       # Number of bytes of host memory used
host_seconds                                    84.87                       # Real time elapsed on the host
sim_insts                                  5865191071                       # Number of instructions simulated
sim_ops                                   10909444929                       # Number of ops (including micro ops) simulated
system.voltage_domain.voltage                       1                       # Voltage in Volts
system.clk_domain.clock                          1000                       # Clock period in ticks
system.mem_ctrls.pwrStateResidencyTicks::UNDEFINED  15267344125                       # Cumulative time (in ticks) in various power states
system.mem_ctrls.bytes_read::cpu0.data       11753536                       # Number of bytes read from this memory
system.mem_ctrls.bytes_read::total           11753536                       # Number of bytes read from this memory
system.mem_ctrls.bytes_written::writebacks        24064                       # Number of bytes written to this memory
system.mem_ctrls.bytes_written::total           24064                       # Number of bytes written to this memory
system.mem_ctrls.num_reads::cpu0.data          183649                       # Number of read requests responded to by this memory
system.mem_ctrls.num_reads::total              183649                       # Number of read requests responded to by this memory
system.mem_ctrls.num_writes::writebacks           376                       # Number of write requests responded to by this memory
system.mem_ctrls.num_writes::total                376                       # Number of write requests responded to by this memory
system.mem_ctrls.bw_read::cpu0.data         769848109                       # Total read bandwidth from this memory (bytes/s)
system.mem_ctrls.bw_read::total             769848109                       # Total read bandwidth from this memory (bytes/s)
system.mem_ctrls.bw_write::writebacks         1576175                       # Write bandwidth from this memory (bytes/s)
system.mem_ctrls.bw_write::total              1576175                       # Write bandwidth from this memory (bytes/s)
system.mem_ctrls.bw_total::writebacks         1576175                       # Total bandwidth to/from this memory (bytes/s)
system.mem_ctrls.bw_total::cpu0.data        769848109                       # Total bandwidth to/from this memory (bytes/s)
system.mem_ctrls.bw_total::total            771424283                       # Total bandwidth to/from this memory (bytes/s)
system.mem_ctrls.readReqs                      183650                       # Number of read requests accepted
system.mem_ctrls.writeReqs                        376                       # Number of write requests accepted
system.mem_ctrls.readBursts                    183650                       # Number of DRAM read bursts, including those serviced by the write queue
system.mem_ctrls.writeBursts                      376                       # Number of DRAM write bursts, including those merged in the write queue
system.mem_ctrls.bytesReadDRAM               11749248                       # Total number of bytes read from DRAM
system.mem_ctrls.bytesReadWrQ                    4352                       # Total number of bytes read from write queue
system.mem_ctrls.bytesWritten                   24704                       # Total number of bytes written to DRAM
system.mem_ctrls.bytesReadSys                11753600                       # Total read bytes from the system interface side
system.mem_ctrls.bytesWrittenSys                24064                       # Total written bytes from the system interface side
system.mem_ctrls.servicedByWrQ                     68                       # Number of DRAM read bursts serviced by the write queue
system.mem_ctrls.mergedWrBursts                     0                       # Number of DRAM write bursts merged with an existing one
system.mem_ctrls.neitherReadNorWriteReqs            0                       # Number of requests that are neither read nor write
system.mem_ctrls.perBankRdBursts::0             11039                       # Per bank write bursts
system.mem_ctrls.perBankRdBursts::1             11223                       # Per bank write bursts
system.mem_ctrls.perBankRdBursts::2             11319                       # Per bank write bursts
system.mem_ctrls.perBankRdBursts::3             11854                       # Per bank write bursts
system.mem_ctrls.perBankRdBursts::4             11799                       # Per bank write bursts
system.mem_ctrls.perBankRdBursts::5             11674                       # Per bank write bursts
system.mem_ctrls.perBankRdBursts::6             11738                       # Per bank write bursts
system.mem_ctrls.perBankRdBursts::7             11355                       # Per bank write bursts
system.mem_ctrls.perBankRdBursts::8             11592                       # Per bank write bursts
system.mem_ctrls.perBankRdBursts::9             11631                       # Per bank write bursts
system.mem_ctrls.perBankRdBursts::10            11799                       # Per bank write bursts
system.mem_ctrls.perBankRdBursts::11            11539                       # Per bank write bursts
system.mem_ctrls.perBankRdBursts::12            11349                       # Per bank write bursts
system.mem_ctrls.perBankRdBursts::13            11294                       # Per bank write bursts
system.mem_ctrls.perBankRdBursts::14            11217                       # Per bank write bursts
system.mem_ctrls.perBankRdBursts::15            11160                       # Per bank write bursts
system.mem_ctrls.perBankWrBursts::0                 0                       # Per bank write bursts
system.mem_ctrls.perBankWrBursts::1                37                       # Per bank write bursts
system.mem_ctrls.perBankWrBursts::2                 0                       # Per bank write bursts
system.mem_ctrls.perBankWrBursts::3                89                       # Per bank write bursts
system.mem_ctrls.perBankWrBursts::4                 6                       # Per bank write bursts
system.mem_ctrls.perBankWrBursts::5                 0                       # Per bank write bursts
system.mem_ctrls.perBankWrBursts::6                 0                       # Per bank write bursts
system.mem_ctrls.perBankWrBursts::7                 0                       # Per bank write bursts
system.mem_ctrls.perBankWrBursts::8                 5                       # Per bank write bursts
system.mem_ctrls.perBankWrBursts::9                96                       # Per bank write bursts
system.mem_ctrls.perBankWrBursts::10              121                       # Per bank write bursts
system.mem_ctrls.perBankWrBursts::11               32                       # Per bank write bursts
system.mem_ctrls.perBankWrBursts::12                0                       # Per bank write bursts
system.mem_ctrls.perBankWrBursts::13                0                       # Per bank write bursts
system.mem_ctrls.perBankWrBursts::14                0                       # Per bank write bursts
system.mem_ctrls.perBankWrBursts::15                0                       # Per bank write bursts
system.mem_ctrls.numRdRetry                         0                       # Number of times read queue was full causing retry
system.mem_ctrls.numWrRetry                         0                       # Number of times write queue was full causing retry
system.mem_ctrls.totGap                   15267428000                       # Total gap between requests
system.mem_ctrls.readPktSize::0                     0                       # Read request sizes (log2)
system.mem_ctrls.readPktSize::1                     0                       # Read request sizes (log2)
system.mem_ctrls.readPktSize::2                     0                       # Read request sizes (log2)
system.mem_ctrls.readPktSize::3                     0                       # Read request sizes (log2)
system.mem_ctrls.readPktSize::4                     0                       # Read request sizes (log2)
system.mem_ctrls.readPktSize::5                     0                       # Read request sizes (log2)
system.mem_ctrls.readPktSize::6                183650                       # Read request sizes (log2)
system.mem_ctrls.writePktSize::0                    0                       # Write request sizes (log2)
system.mem_ctrls.writePktSize::1                    0                       # Write request sizes (log2)
system.mem_ctrls.writePktSize::2                    0                       # Write request sizes (log2)
system.mem_ctrls.writePktSize::3                    0                       # Write request sizes (log2)
system.mem_ctrls.writePktSize::4                    0                       # Write request sizes (log2)
system.mem_ctrls.writePktSize::5                    0                       # Write request sizes (log2)
system.mem_ctrls.writePktSize::6                  376                       # Write request sizes (log2)
system.mem_ctrls.rdQLenPdf::0                  139537                       # What read queue length does an incoming req see
system.mem_ctrls.rdQLenPdf::1                   41005                       # What read queue length does an incoming req see
system.mem_ctrls.rdQLenPdf::2                    2965                       # What read queue length does an incoming req see
system.mem_ctrls.rdQLenPdf::3                      75                       # What read queue length does an incoming req see
system.mem_ctrls.rdQLenPdf::4                       0                       # What read queue length does an incoming req see
system.mem_ctrls.rdQLenPdf::5                       0                       # What read queue length does an incoming req see
system.mem_ctrls.rdQLenPdf::6                       0                       # What read queue length does an incoming req see
system.mem_ctrls.rdQLenPdf::7                       0                       # What read queue length does an incoming req see
system.mem_ctrls.rdQLenPdf::8                       0                       # What read queue length does an incoming req see
system.mem_ctrls.rdQLenPdf::9                       0                       # What read queue length does an incoming req see
system.mem_ctrls.rdQLenPdf::10                      0                       # What read queue length does an incoming req see
system.mem_ctrls.rdQLenPdf::11                      0                       # What read queue length does an incoming req see
system.mem_ctrls.rdQLenPdf::12                      0                       # What read queue length does an incoming req see
system.mem_ctrls.rdQLenPdf::13                      0                       # What read queue length does an incoming req see
system.mem_ctrls.rdQLenPdf::14                      0                       # What read queue length does an incoming req see
system.mem_ctrls.rdQLenPdf::15                      0                       # What read queue length does an incoming req see
system.mem_ctrls.rdQLenPdf::16                      0                       # What read queue length does an incoming req see
system.mem_ctrls.rdQLenPdf::17                      0                       # What read queue length does an incoming req see
system.mem_ctrls.rdQLenPdf::18                      0                       # What read queue length does an incoming req see
system.mem_ctrls.rdQLenPdf::19                      0                       # What read queue length does an incoming req see
system.mem_ctrls.rdQLenPdf::20                      0                       # What read queue length does an incoming req see
system.mem_ctrls.rdQLenPdf::21                      0                       # What read queue length does an incoming req see
system.mem_ctrls.rdQLenPdf::22                      0                       # What read queue length does an incoming req see
system.mem_ctrls.rdQLenPdf::23                      0                       # What read queue length does an incoming req see
system.mem_ctrls.rdQLenPdf::24                      0                       # What read queue length does an incoming req see
system.mem_ctrls.rdQLenPdf::25                      0                       # What read queue length does an incoming req see
system.mem_ctrls.rdQLenPdf::26                      0                       # What read queue length does an incoming req see
system.mem_ctrls.rdQLenPdf::27                      0                       # What read queue length does an incoming req see
system.mem_ctrls.rdQLenPdf::28                      0                       # What read queue length does an incoming req see
system.mem_ctrls.rdQLenPdf::29                      0                       # What read queue length does an incoming req see
system.mem_ctrls.rdQLenPdf::30                      0                       # What read queue length does an incoming req see
system.mem_ctrls.rdQLenPdf::31                      0                       # What read queue length does an incoming req see
system.mem_ctrls.wrQLenPdf::0                       0                       # What write queue length does an incoming req see
system.mem_ctrls.wrQLenPdf::1                       0                       # What write queue length does an incoming req see
system.mem_ctrls.wrQLenPdf::2                       0                       # What write queue length does an incoming req see
system.mem_ctrls.wrQLenPdf::3                       0                       # What write queue length does an incoming req see
system.mem_ctrls.wrQLenPdf::4                       0                       # What write queue length does an incoming req see
system.mem_ctrls.wrQLenPdf::5                       0                       # What write queue length does an incoming req see
system.mem_ctrls.wrQLenPdf::6                       0                       # What write queue length does an incoming req see
system.mem_ctrls.wrQLenPdf::7                       0                       # What write queue length does an incoming req see
system.mem_ctrls.wrQLenPdf::8                       0                       # What write queue length does an incoming req see
system.mem_ctrls.wrQLenPdf::9                       0                       # What write queue length does an incoming req see
system.mem_ctrls.wrQLenPdf::10                      0                       # What write queue length does an incoming req see
system.mem_ctrls.wrQLenPdf::11                      0                       # What write queue length does an incoming req see
system.mem_ctrls.wrQLenPdf::12                      0                       # What write queue length does an incoming req see
system.mem_ctrls.wrQLenPdf::13                      0                       # What write queue length does an incoming req see
system.mem_ctrls.wrQLenPdf::14                      0                       # What write queue length does an incoming req see
system.mem_ctrls.wrQLenPdf::15                      1                       # What write queue length does an incoming req see
system.mem_ctrls.wrQLenPdf::16                      1                       # What write queue length does an incoming req see
system.mem_ctrls.wrQLenPdf::17                     23                       # What write queue length does an incoming req see
system.mem_ctrls.wrQLenPdf::18                     23                       # What write queue length does an incoming req see
system.mem_ctrls.wrQLenPdf::19                     23                       # What write queue length does an incoming req see
system.mem_ctrls.wrQLenPdf::20                     23                       # What write queue length does an incoming req see
system.mem_ctrls.wrQLenPdf::21                     23                       # What write queue length does an incoming req see
system.mem_ctrls.wrQLenPdf::22                     23                       # What write queue length does an incoming req see
system.mem_ctrls.wrQLenPdf::23                     23                       # What write queue length does an incoming req see
system.mem_ctrls.wrQLenPdf::24                     23                       # What write queue length does an incoming req see
system.mem_ctrls.wrQLenPdf::25                     23                       # What write queue length does an incoming req see
system.mem_ctrls.wrQLenPdf::26                     23                       # What write queue length does an incoming req see
system.mem_ctrls.wrQLenPdf::27                     24                       # What write queue length does an incoming req see
system.mem_ctrls.wrQLenPdf::28                     24                       # What write queue length does an incoming req see
system.mem_ctrls.wrQLenPdf::29                     24                       # What write queue length does an incoming req see
system.mem_ctrls.wrQLenPdf::30                     24                       # What write queue length does an incoming req see
system.mem_ctrls.wrQLenPdf::31                     24                       # What write queue length does an incoming req see
system.mem_ctrls.wrQLenPdf::32                     24                       # What write queue length does an incoming req see
system.mem_ctrls.wrQLenPdf::33                      0                       # What write queue length does an incoming req see
system.mem_ctrls.wrQLenPdf::34                      0                       # What write queue length does an incoming req see
system.mem_ctrls.wrQLenPdf::35                      0                       # What write queue length does an incoming req see
system.mem_ctrls.wrQLenPdf::36                      0                       # What write queue length does an incoming req see
system.mem_ctrls.wrQLenPdf::37                      0                       # What write queue length does an incoming req see
system.mem_ctrls.wrQLenPdf::38                      0                       # What write queue length does an incoming req see
system.mem_ctrls.wrQLenPdf::39                      0                       # What write queue length does an incoming req see
system.mem_ctrls.wrQLenPdf::40                      0                       # What write queue length does an incoming req see
system.mem_ctrls.wrQLenPdf::41                      0                       # What write queue length does an incoming req see
system.mem_ctrls.wrQLenPdf::42                      0                       # What write queue length does an incoming req see
system.mem_ctrls.wrQLenPdf::43                      0                       # What write queue length does an incoming req see
system.mem_ctrls.wrQLenPdf::44                      0                       # What write queue length does an incoming req see
system.mem_ctrls.wrQLenPdf::45                      0                       # What write queue length does an incoming req see
system.mem_ctrls.wrQLenPdf::46                      0                       # What write queue length does an incoming req see
system.mem_ctrls.wrQLenPdf::47                      0                       # What write queue length does an incoming req see
system.mem_ctrls.wrQLenPdf::48                      0                       # What write queue length does an incoming req see
system.mem_ctrls.wrQLenPdf::49                      0                       # What write queue length does an incoming req see
system.mem_ctrls.wrQLenPdf::50                      0                       # What write queue length does an incoming req see
system.mem_ctrls.wrQLenPdf::51                      0                       # What write queue length does an incoming req see
system.mem_ctrls.wrQLenPdf::52                      0                       # What write queue length does an incoming req see
system.mem_ctrls.wrQLenPdf::53                      0                       # What write queue length does an incoming req see
system.mem_ctrls.wrQLenPdf::54                      0                       # What write queue length does an incoming req see
system.mem_ctrls.wrQLenPdf::55                      0                       # What write queue length does an incoming req see
system.mem_ctrls.wrQLenPdf::56                      0                       # What write queue length does an incoming req see
system.mem_ctrls.wrQLenPdf::57                      0                       # What write queue length does an incoming req see
system.mem_ctrls.wrQLenPdf::58                      0                       # What write queue length does an incoming req see
system.mem_ctrls.wrQLenPdf::59                      0                       # What write queue length does an incoming req see
system.mem_ctrls.wrQLenPdf::60                      0                       # What write queue length does an incoming req see
system.mem_ctrls.wrQLenPdf::61                      0                       # What write queue length does an incoming req see
system.mem_ctrls.wrQLenPdf::62                      0                       # What write queue length does an incoming req see
system.mem_ctrls.wrQLenPdf::63                      0                       # What write queue length does an incoming req see
system.mem_ctrls.bytesPerActivate::samples        97306                       # Bytes accessed per row activation
system.mem_ctrls.bytesPerActivate::mean    121.011736                       # Bytes accessed per row activation
system.mem_ctrls.bytesPerActivate::gmean   104.325317                       # Bytes accessed per row activation
system.mem_ctrls.bytesPerActivate::stdev    73.220106                       # Bytes accessed per row activation
system.mem_ctrls.bytesPerActivate::0-127        46821     48.12%     48.12% # Bytes accessed per row activation
system.mem_ctrls.bytesPerActivate::128-255        41375     42.52%     90.64% # Bytes accessed per row activation
system.mem_ctrls.bytesPerActivate::256-383         7929      8.15%     98.79% # Bytes accessed per row activation
system.mem_ctrls.bytesPerActivate::384-511         1047      1.08%     99.86% # Bytes accessed per row activation
system.mem_ctrls.bytesPerActivate::512-639          108      0.11%     99.97% # Bytes accessed per row activation
system.mem_ctrls.bytesPerActivate::640-767           12      0.01%     99.99% # Bytes accessed per row activation
system.mem_ctrls.bytesPerActivate::768-895            4      0.00%     99.99% # Bytes accessed per row activation
system.mem_ctrls.bytesPerActivate::896-1023            3      0.00%     99.99% # Bytes accessed per row activation
system.mem_ctrls.bytesPerActivate::1024-1151            7      0.01%    100.00% # Bytes accessed per row activation
system.mem_ctrls.bytesPerActivate::total        97306                       # Bytes accessed per row activation
system.mem_ctrls.rdPerTurnAround::samples           24                       # Reads before turning the bus around for writes
system.mem_ctrls.rdPerTurnAround::mean    7729.125000                       # Reads before turning the bus around for writes
system.mem_ctrls.rdPerTurnAround::gmean   7425.433088                       # Reads before turning the bus around for writes
system.mem_ctrls.rdPerTurnAround::stdev   2185.936220                       # Reads before turning the bus around for writes
system.mem_ctrls.rdPerTurnAround::3584-4095            2      8.33%      8.33% # Reads before turning the bus around for writes
system.mem_ctrls.rdPerTurnAround::4608-5119            1      4.17%     12.50% # Reads before turning the bus around for writes
system.mem_ctrls.rdPerTurnAround::5120-5631            1      4.17%     16.67% # Reads before turning the bus around for writes
system.mem_ctrls.rdPerTurnAround::5632-6143            1      4.17%     20.83% # Reads before turning the bus around for writes
system.mem_ctrls.rdPerTurnAround::6144-6655            3     12.50%     33.33% # Reads before turning the bus around for writes
system.mem_ctrls.rdPerTurnAround::6656-7167            1      4.17%     37.50% # Reads before turning the bus around for writes
system.mem_ctrls.rdPerTurnAround::7168-7679            4     16.67%     54.17% # Reads before turning the bus around for writes
system.mem_ctrls.rdPerTurnAround::7680-8191            4     16.67%     70.83% # Reads before turning the bus around for writes
system.mem_ctrls.rdPerTurnAround::8192-8703            1      4.17%     75.00% # Reads before turning the bus around for writes
system.mem_ctrls.rdPerTurnAround::8704-9215            1      4.17%     79.17% # Reads before turning the bus around for writes
system.mem_ctrls.rdPerTurnAround::9728-10239            1      4.17%     83.33% # Reads before turning the bus around for writes
system.mem_ctrls.rdPerTurnAround::10240-10751            1      4.17%     87.50% # Reads before turning the bus around for writes
system.mem_ctrls.rdPerTurnAround::10752-11263            1      4.17%     91.67% # Reads before turning the bus around for writes
system.mem_ctrls.rdPerTurnAround::11264-11775            1      4.17%     95.83% # Reads before turning the bus around for writes
system.mem_ctrls.rdPerTurnAround::12288-12799            1      4.17%    100.00% # Reads before turning the bus around for writes
system.mem_ctrls.rdPerTurnAround::total            24                       # Reads before turning the bus around for writes
system.mem_ctrls.wrPerTurnAround::samples           24                       # Writes before turning the bus around for reads
system.mem_ctrls.wrPerTurnAround::mean      16.083333                       # Writes before turning the bus around for reads
system.mem_ctrls.wrPerTurnAround::gmean     16.078715                       # Writes before turning the bus around for reads
system.mem_ctrls.wrPerTurnAround::stdev      0.408248                       # Writes before turning the bus around for reads
system.mem_ctrls.wrPerTurnAround::16               23     95.83%     95.83% # Writes before turning the bus around for reads
system.mem_ctrls.wrPerTurnAround::18                1      4.17%    100.00% # Writes before turning the bus around for reads
system.mem_ctrls.wrPerTurnAround::total            24                       # Writes before turning the bus around for reads
system.mem_ctrls.totQLat                   4577603250                       # Total ticks spent queuing
system.mem_ctrls.totMemAccLat              8019765750                       # Total ticks spent from burst creation until serviced by the DRAM
system.mem_ctrls.totBusLat                  917910000                       # Total ticks spent in databus transfers
system.mem_ctrls.avgQLat                     24934.92                       # Average queueing delay per DRAM burst
system.mem_ctrls.avgBusLat                    5000.00                       # Average bus latency per DRAM burst
system.mem_ctrls.avgMemAccLat                43684.92                       # Average memory access latency per DRAM burst
system.mem_ctrls.avgRdBW                       769.57                       # Average DRAM read bandwidth in MiByte/s
system.mem_ctrls.avgWrBW                         1.62                       # Average achieved write bandwidth in MiByte/s
system.mem_ctrls.avgRdBWSys                    769.85                       # Average system read bandwidth in MiByte/s
system.mem_ctrls.avgWrBWSys                      1.58                       # Average system write bandwidth in MiByte/s
system.mem_ctrls.peakBW                      12800.00                       # Theoretical peak bandwidth in MiByte/s
system.mem_ctrls.busUtil                         6.02                       # Data bus utilization in percentage
system.mem_ctrls.busUtilRead                     6.01                       # Data bus utilization in percentage for reads
system.mem_ctrls.busUtilWrite                    0.01                       # Data bus utilization in percentage for writes
system.mem_ctrls.avgRdQLen                       1.30                       # Average read queue length when enqueuing
system.mem_ctrls.avgWrQLen                      25.63                       # Average write queue length when enqueuing
system.mem_ctrls.readRowHits                    86341                       # Number of row buffer hits during reads
system.mem_ctrls.writeRowHits                     327                       # Number of row buffer hits during writes
system.mem_ctrls.readRowHitRate                 47.03                       # Row buffer hit rate for reads
system.mem_ctrls.writeRowHitRate                86.97                       # Row buffer hit rate for writes
system.mem_ctrls.avgGap                      82963.43                       # Average gap between requests
system.mem_ctrls.pageHitRate                    47.11                       # Row buffer hit rate, read and write combined
system.mem_ctrls_0.actEnergy                348146400                       # Energy for activate commands per rank (pJ)
system.mem_ctrls_0.preEnergy                185063175                       # Energy for precharge commands per rank (pJ)
system.mem_ctrls_0.readEnergy               656887140                       # Energy for read commands per rank (pJ)
system.mem_ctrls_0.writeEnergy                 689040                       # Energy for write commands per rank (pJ)
system.mem_ctrls_0.refreshEnergy         1205309040.000000                       # Energy for refresh commands per rank (pJ)
system.mem_ctrls_0.actBackEnergy           1579963050                       # Energy for active background per rank (pJ)
system.mem_ctrls_0.preBackEnergy             24614400                       # Energy for precharge background per rank (pJ)
system.mem_ctrls_0.actPowerDownEnergy      5212732080                       # Energy for active power-down per rank (pJ)
system.mem_ctrls_0.prePowerDownEnergy       117881280                       # Energy for precharge power-down per rank (pJ)
system.mem_ctrls_0.selfRefreshEnergy                0                       # Energy for self refresh per rank (pJ)
system.mem_ctrls_0.totalEnergy             9331285605                       # Total energy per rank (pJ)
system.mem_ctrls_0.averagePower            611.192459                       # Core power per rank (mW)
system.mem_ctrls_0.totalIdleTime          11738809375                       # Total Idle time Per DRAM Rank
system.mem_ctrls_0.memoryStateTime::IDLE      9696000                       # Time in different power states
system.mem_ctrls_0.memoryStateTime::REF     509860000                       # Time in different power states
system.mem_ctrls_0.memoryStateTime::SREF            0                       # Time in different power states
system.mem_ctrls_0.memoryStateTime::PRE_PDN    306983250                       # Time in different power states
system.mem_ctrls_0.memoryStateTime::ACT    3008899250                       # Time in different power states
system.mem_ctrls_0.memoryStateTime::ACT_PDN  11431905625                       # Time in different power states
system.mem_ctrls_1.actEnergy                346568460                       # Energy for activate commands per rank (pJ)
system.mem_ctrls_1.preEnergy                184213095                       # Energy for precharge commands per rank (pJ)
system.mem_ctrls_1.readEnergy               653881200                       # Energy for read commands per rank (pJ)
system.mem_ctrls_1.writeEnergy                1325880                       # Energy for write commands per rank (pJ)
system.mem_ctrls_1.refreshEnergy         1205309040.000000                       # Energy for refresh commands per rank (pJ)
system.mem_ctrls_1.actBackEnergy           1576145190                       # Energy for active background per rank (pJ)
system.mem_ctrls_1.preBackEnergy             24618720                       # Energy for precharge background per rank (pJ)
system.mem_ctrls_1.actPowerDownEnergy      5231649240                       # Energy for active power-down per rank (pJ)
system.mem_ctrls_1.prePowerDownEnergy       105161760                       # Energy for precharge power-down per rank (pJ)
system.mem_ctrls_1.selfRefreshEnergy                0                       # Energy for self refresh per rank (pJ)
system.mem_ctrls_1.totalEnergy             9328872585                       # Total energy per rank (pJ)
system.mem_ctrls_1.averagePower            611.034408                       # Core power per rank (mW)
system.mem_ctrls_1.totalIdleTime          11747190375                       # Total Idle time Per DRAM Rank
system.mem_ctrls_1.memoryStateTime::IDLE      9720000                       # Time in different power states
system.mem_ctrls_1.memoryStateTime::REF     509860000                       # Time in different power states
system.mem_ctrls_1.memoryStateTime::SREF            0                       # Time in different power states
system.mem_ctrls_1.memoryStateTime::PRE_PDN    273694750                       # Time in different power states
system.mem_ctrls_1.memoryStateTime::ACT    3000573750                       # Time in different power states
system.mem_ctrls_1.memoryStateTime::ACT_PDN  11473495625                       # Time in different power states
system.pwrStateResidencyTicks::UNDEFINED  15267344125                       # Cumulative time (in ticks) in various power states
system.cpu0.branchPred.lookups                1983312                       # Number of BP lookups
system.cpu0.branchPred.condPredicted          1983312                       # Number of conditional branches predicted
system.cpu0.branchPred.condIncorrect            87717                       # Number of conditional branches incorrect
system.cpu0.branchPred.BTBLookups             1590934                       # Number of BTB lookups
system.cpu0.branchPred.BTBHits                      0                       # Number of BTB hits
system.cpu0.branchPred.BTBCorrect                   0                       # Number of correct BTB predictions (this stat may not work properly.
system.cpu0.branchPred.BTBHitPct             0.000000                       # BTB Hit Percentage
system.cpu0.branchPred.usedRAS                  59331                       # Number of times the RAS was used to get a target.
system.cpu0.branchPred.RASInCorrect              9721                       # Number of incorrect RAS predictions.
system.cpu0.branchPred.indirectLookups        1590934                       # Number of indirect predictor lookups.
system.cpu0.branchPred.indirectHits            828586                       # Number of indirect target hits.
system.cpu0.branchPred.indirectMisses          762348                       # Number of indirect misses.
system.cpu0.branchPredindirectMispredicted        27865                       # Number of mispredicted indirect branches.
system.cpu_voltage_domain.voltage                   1                       # Voltage in Volts
system.cpu_clk_domain.clock                       500                       # Clock period in ticks
system.cpu0.dtb.walker.pwrStateResidencyTicks::UNDEFINED  15267344125                       # Cumulative time (in ticks) in various power states
system.cpu0.dtb.rdAccesses                     932683                       # TLB accesses on read requests
system.cpu0.dtb.wrAccesses                      57845                       # TLB accesses on write requests
system.cpu0.dtb.rdMisses                       181577                       # TLB misses on read requests
system.cpu0.dtb.wrMisses                         1039                       # TLB misses on write requests
system.cpu0.apic_clk_domain.clock                8000                       # Clock period in ticks
system.cpu0.interrupts.pwrStateResidencyTicks::UNDEFINED  15267344125                       # Cumulative time (in ticks) in various power states
system.cpu0.itb.walker.pwrStateResidencyTicks::UNDEFINED  15267344125                       # Cumulative time (in ticks) in various power states
system.cpu0.itb.rdAccesses                          0                       # TLB accesses on read requests
system.cpu0.itb.wrAccesses                    1620869                       # TLB accesses on write requests
system.cpu0.itb.rdMisses                            0                       # TLB misses on read requests
system.cpu0.itb.wrMisses                         7393                       # TLB misses on write requests
system.cpu0.workload.numSyscalls                    0                       # Number of system calls
system.cpu0.pwrStateResidencyTicks::ON    15267344125                       # Cumulative time (in ticks) in various power states
system.cpu0.numCycles                        30534689                       # number of cpu cycles simulated
system.cpu0.numWorkItemsStarted                     0                       # number of work items this cpu started
system.cpu0.numWorkItemsCompleted                   0                       # number of work items this cpu completed
system.cpu0.fetch.icacheStallCycles           1659994                       # Number of cycles fetch is stalled on an Icache miss
system.cpu0.fetch.Insts                       5798135                       # Number of instructions fetch has processed
system.cpu0.fetch.Branches                    1983312                       # Number of branches that fetch encountered
system.cpu0.fetch.predictedBranches            887917                       # Number of branches that fetch has predicted taken
system.cpu0.fetch.Cycles                     28654843                       # Number of cycles fetch has run and was not squashing or blocked
system.cpu0.fetch.SquashCycles                 180562                       # Number of cycles fetch has spent squashing
system.cpu0.fetch.TlbCycles                      2716                       # Number of cycles fetch has spent waiting for tlb
system.cpu0.fetch.MiscStallCycles                1800                       # Number of cycles fetch has spent waiting on interrupts, or bad addresses, or out of MSHRs
system.cpu0.fetch.PendingTrapStallCycles        64807                       # Number of stall cycles due to pending traps
system.cpu0.fetch.CacheLines                  1613476                       # Number of cache lines fetched
system.cpu0.fetch.IcacheSquashes                10555                       # Number of outstanding Icache misses that were squashed
system.cpu0.fetch.ItlbSquashes                     17                       # Number of outstanding ITLB misses that were squashed
system.cpu0.fetch.rateDist::samples          30474441                       # Number of instructions fetched each cycle (Total)
system.cpu0.fetch.rateDist::mean             0.383367                       # Number of instructions fetched each cycle (Total)
system.cpu0.fetch.rateDist::stdev            1.554009                       # Number of instructions fetched each cycle (Total)
system.cpu0.fetch.rateDist::underflows              0      0.00%      0.00% # Number of instructions fetched each cycle (Total)
system.cpu0.fetch.rateDist::0                28238940     92.66%     92.66% # Number of instructions fetched each cycle (Total)
system.cpu0.fetch.rateDist::1                   23188      0.08%     92.74% # Number of instructions fetched each cycle (Total)
system.cpu0.fetch.rateDist::2                  793672      2.60%     95.34% # Number of instructions fetched each cycle (Total)
system.cpu0.fetch.rateDist::3                   31434      0.10%     95.45% # Number of instructions fetched each cycle (Total)
system.cpu0.fetch.rateDist::4                  155979      0.51%     95.96% # Number of instructions fetched each cycle (Total)
system.cpu0.fetch.rateDist::5                   88896      0.29%     96.25% # Number of instructions fetched each cycle (Total)
system.cpu0.fetch.rateDist::6                   99894      0.33%     96.58% # Number of instructions fetched each cycle (Total)
system.cpu0.fetch.rateDist::7                   29214      0.10%     96.68% # Number of instructions fetched each cycle (Total)
system.cpu0.fetch.rateDist::8                 1013224      3.32%    100.00% # Number of instructions fetched each cycle (Total)
system.cpu0.fetch.rateDist::overflows               0      0.00%    100.00% # Number of instructions fetched each cycle (Total)
system.cpu0.fetch.rateDist::min_value               0                       # Number of instructions fetched each cycle (Total)
system.cpu0.fetch.rateDist::max_value               8                       # Number of instructions fetched each cycle (Total)
system.cpu0.fetch.rateDist::total            30474441                       # Number of instructions fetched each cycle (Total)
system.cpu0.fetch.branchRate                 0.064953                       # Number of branch fetches per cycle
system.cpu0.fetch.rate                       0.189887                       # Number of inst fetches per cycle
system.cpu0.decode.IdleCycles                  847122                       # Number of cycles decode is idle
system.cpu0.decode.BlockedCycles             28066015                       # Number of cycles decode is blocked
system.cpu0.decode.RunCycles                  1103170                       # Number of cycles decode is running
system.cpu0.decode.UnblockCycles               367853                       # Number of cycles decode is unblocking
system.cpu0.decode.SquashCycles                 90281                       # Number of cycles decode is squashing
system.cpu0.decode.DecodedInsts               9539144                       # Number of instructions handled by decode
system.cpu0.rename.SquashCycles                 90281                       # Number of cycles rename is squashing
system.cpu0.rename.IdleCycles                  965767                       # Number of cycles rename is idle
system.cpu0.rename.BlockCycles               26500301                       # Number of cycles rename is blocking
system.cpu0.rename.serializeStallCycles         18410                       # count of cycles rename stalled for serializing inst
system.cpu0.rename.RunCycles                  1263964                       # Number of cycles rename is running
system.cpu0.rename.UnblockCycles              1635718                       # Number of cycles rename is unblocking
system.cpu0.rename.RenamedInsts               9127461                       # Number of instructions processed by rename
system.cpu0.rename.ROBFullEvents               109888                       # Number of times rename has blocked due to ROB full
system.cpu0.rename.IQFullEvents               1195954                       # Number of times rename has blocked due to IQ full
system.cpu0.rename.LQFullEvents                404361                       # Number of times rename has blocked due to LQ full
system.cpu0.rename.SQFullEvents                   766                       # Number of times rename has blocked due to SQ full
system.cpu0.rename.RenamedOperands           10883187                       # Number of destination operands rename has renamed
system.cpu0.rename.RenameLookups             25366229                       # Number of register rename lookups that rename has made
system.cpu0.rename.int_rename_lookups        11980120                       # Number of integer rename lookups
system.cpu0.rename.fp_rename_lookups            44097                       # Number of floating rename lookups
system.cpu0.rename.CommittedMaps              3623441                       # Number of HB maps that are committed
system.cpu0.rename.UndoneMaps                 7259730                       # Number of HB maps that are undone due to squashing
system.cpu0.rename.serializingInsts               373                       # count of serializing insts renamed
system.cpu0.rename.tempSerializingInsts           445                       # count of temporary serializing insts renamed
system.cpu0.rename.skidInsts                  2333223                       # count of insts added to the skid buffer
system.cpu0.memDep0.insertedLoads             1653438                       # Number of loads inserted to the mem dependence unit.
system.cpu0.memDep0.insertedStores              86324                       # Number of stores inserted to the mem dependence unit.
system.cpu0.memDep0.conflictingLoads             6054                       # Number of conflicting loads.
system.cpu0.memDep0.conflictingStores            5521                       # Number of conflicting stores.
system.cpu0.iq.iqInstsAdded                   8646108                       # Number of instructions added to the IQ (excludes non-spec)
system.cpu0.iq.iqNonSpecInstsAdded               5952                       # Number of non-speculative instructions added to the IQ
system.cpu0.iq.iqInstsIssued                  6149942                       # Number of instructions issued
system.cpu0.iq.iqSquashedInstsIssued             6632                       # Number of squashed instructions issued
system.cpu0.iq.iqSquashedInstsExamined        5626952                       # Number of squashed instructions iterated over during squash; mainly for profiling
system.cpu0.iq.iqSquashedOperandsExamined     11553727                       # Number of squashed operands that are examined and possibly removed from graph
system.cpu0.iq.iqSquashedNonSpecRemoved          5952                       # Number of squashed non-spec instructions that were removed
system.cpu0.iq.issued_per_cycle::samples     30474441                       # Number of insts issued each cycle
system.cpu0.iq.issued_per_cycle::mean        0.201807                       # Number of insts issued each cycle
system.cpu0.iq.issued_per_cycle::stdev       0.820479                       # Number of insts issued each cycle
system.cpu0.iq.issued_per_cycle::underflows            0      0.00%      0.00% # Number of insts issued each cycle
system.cpu0.iq.issued_per_cycle::0           27998868     91.88%     91.88% # Number of insts issued each cycle
system.cpu0.iq.issued_per_cycle::1             949358      3.12%     94.99% # Number of insts issued each cycle
system.cpu0.iq.issued_per_cycle::2             525649      1.72%     96.72% # Number of insts issued each cycle
system.cpu0.iq.issued_per_cycle::3             351691      1.15%     97.87% # Number of insts issued each cycle
system.cpu0.iq.issued_per_cycle::4             380844      1.25%     99.12% # Number of insts issued each cycle
system.cpu0.iq.issued_per_cycle::5             117444      0.39%     99.51% # Number of insts issued each cycle
system.cpu0.iq.issued_per_cycle::6              93948      0.31%     99.81% # Number of insts issued each cycle
system.cpu0.iq.issued_per_cycle::7              33183      0.11%     99.92% # Number of insts issued each cycle
system.cpu0.iq.issued_per_cycle::8              23456      0.08%    100.00% # Number of insts issued each cycle
system.cpu0.iq.issued_per_cycle::overflows            0      0.00%    100.00% # Number of insts issued each cycle
system.cpu0.iq.issued_per_cycle::min_value            0                       # Number of insts issued each cycle
system.cpu0.iq.issued_per_cycle::max_value            8                       # Number of insts issued each cycle
system.cpu0.iq.issued_per_cycle::total       30474441                       # Number of insts issued each cycle
system.cpu0.iq.fu_full::No_OpClass                  0      0.00%      0.00% # attempts to use FU when none available
system.cpu0.iq.fu_full::IntAlu                  12664     67.17%     67.17% # attempts to use FU when none available
system.cpu0.iq.fu_full::IntMult                     0      0.00%     67.17% # attempts to use FU when none available
system.cpu0.iq.fu_full::IntDiv                      0      0.00%     67.17% # attempts to use FU when none available
system.cpu0.iq.fu_full::FloatAdd                 1242      6.59%     73.76% # attempts to use FU when none available
system.cpu0.iq.fu_full::FloatCmp                    0      0.00%     73.76% # attempts to use FU when none available
system.cpu0.iq.fu_full::FloatCvt                    0      0.00%     73.76% # attempts to use FU when none available
system.cpu0.iq.fu_full::FloatMult                   0      0.00%     73.76% # attempts to use FU when none available
system.cpu0.iq.fu_full::FloatMultAcc                0      0.00%     73.76% # attempts to use FU when none available
system.cpu0.iq.fu_full::FloatDiv                    0      0.00%     73.76% # attempts to use FU when none available
system.cpu0.iq.fu_full::FloatMisc                   0      0.00%     73.76% # attempts to use FU when none available
system.cpu0.iq.fu_full::FloatSqrt                   0      0.00%     73.76% # attempts to use FU when none available
system.cpu0.iq.fu_full::SimdAdd                     0      0.00%     73.76% # attempts to use FU when none available
system.cpu0.iq.fu_full::SimdAddAcc                  0      0.00%     73.76% # attempts to use FU when none available
system.cpu0.iq.fu_full::SimdAlu                     0      0.00%     73.76% # attempts to use FU when none available
system.cpu0.iq.fu_full::SimdCmp                     0      0.00%     73.76% # attempts to use FU when none available
system.cpu0.iq.fu_full::SimdCvt                     0      0.00%     73.76% # attempts to use FU when none available
system.cpu0.iq.fu_full::SimdMisc                    0      0.00%     73.76% # attempts to use FU when none available
system.cpu0.iq.fu_full::SimdMult                    0      0.00%     73.76% # attempts to use FU when none available
system.cpu0.iq.fu_full::SimdMultAcc                 0      0.00%     73.76% # attempts to use FU when none available
system.cpu0.iq.fu_full::SimdShift                   0      0.00%     73.76% # attempts to use FU when none available
system.cpu0.iq.fu_full::SimdShiftAcc                0      0.00%     73.76% # attempts to use FU when none available
system.cpu0.iq.fu_full::SimdSqrt                    0      0.00%     73.76% # attempts to use FU when none available
system.cpu0.iq.fu_full::SimdFloatAdd                0      0.00%     73.76% # attempts to use FU when none available
system.cpu0.iq.fu_full::SimdFloatAlu                0      0.00%     73.76% # attempts to use FU when none available
system.cpu0.iq.fu_full::SimdFloatCmp                0      0.00%     73.76% # attempts to use FU when none available
system.cpu0.iq.fu_full::SimdFloatCvt                0      0.00%     73.76% # attempts to use FU when none available
system.cpu0.iq.fu_full::SimdFloatDiv                0      0.00%     73.76% # attempts to use FU when none available
system.cpu0.iq.fu_full::SimdFloatMisc               0      0.00%     73.76% # attempts to use FU when none available
system.cpu0.iq.fu_full::SimdFloatMult               0      0.00%     73.76% # attempts to use FU when none available
system.cpu0.iq.fu_full::SimdFloatMultAcc            0      0.00%     73.76% # attempts to use FU when none available
system.cpu0.iq.fu_full::SimdFloatSqrt               0      0.00%     73.76% # attempts to use FU when none available
system.cpu0.iq.fu_full::MemRead                  4454     23.62%     97.39% # attempts to use FU when none available
system.cpu0.iq.fu_full::MemWrite                  307      1.63%     99.01% # attempts to use FU when none available
system.cpu0.iq.fu_full::FloatMemRead              170      0.90%     99.92% # attempts to use FU when none available
system.cpu0.iq.fu_full::FloatMemWrite              16      0.08%    100.00% # attempts to use FU when none available
system.cpu0.iq.fu_full::IprAccess                   0      0.00%    100.00% # attempts to use FU when none available
system.cpu0.iq.fu_full::InstPrefetch                0      0.00%    100.00% # attempts to use FU when none available
system.cpu0.iq.FU_type_0::No_OpClass            21737      0.35%      0.35% # Type of FU issued
system.cpu0.iq.FU_type_0::IntAlu              5058891     82.26%     82.61% # Type of FU issued
system.cpu0.iq.FU_type_0::IntMult                1248      0.02%     82.63% # Type of FU issued
system.cpu0.iq.FU_type_0::IntDiv                10376      0.17%     82.80% # Type of FU issued
system.cpu0.iq.FU_type_0::FloatAdd              15716      0.26%     83.06% # Type of FU issued
system.cpu0.iq.FU_type_0::FloatCmp                  0      0.00%     83.06% # Type of FU issued
system.cpu0.iq.FU_type_0::FloatCvt                  0      0.00%     83.06% # Type of FU issued
system.cpu0.iq.FU_type_0::FloatMult                 0      0.00%     83.06% # Type of FU issued
system.cpu0.iq.FU_type_0::FloatMultAcc              0      0.00%     83.06% # Type of FU issued
system.cpu0.iq.FU_type_0::FloatDiv                  0      0.00%     83.06% # Type of FU issued
system.cpu0.iq.FU_type_0::FloatMisc                 0      0.00%     83.06% # Type of FU issued
system.cpu0.iq.FU_type_0::FloatSqrt                 0      0.00%     83.06% # Type of FU issued
system.cpu0.iq.FU_type_0::SimdAdd                   0      0.00%     83.06% # Type of FU issued
system.cpu0.iq.FU_type_0::SimdAddAcc                0      0.00%     83.06% # Type of FU issued
system.cpu0.iq.FU_type_0::SimdAlu                   0      0.00%     83.06% # Type of FU issued
system.cpu0.iq.FU_type_0::SimdCmp                   0      0.00%     83.06% # Type of FU issued
system.cpu0.iq.FU_type_0::SimdCvt                   0      0.00%     83.06% # Type of FU issued
system.cpu0.iq.FU_type_0::SimdMisc                  0      0.00%     83.06% # Type of FU issued
system.cpu0.iq.FU_type_0::SimdMult                  0      0.00%     83.06% # Type of FU issued
system.cpu0.iq.FU_type_0::SimdMultAcc               0      0.00%     83.06% # Type of FU issued
system.cpu0.iq.FU_type_0::SimdShift                 0      0.00%     83.06% # Type of FU issued
system.cpu0.iq.FU_type_0::SimdShiftAcc              0      0.00%     83.06% # Type of FU issued
system.cpu0.iq.FU_type_0::SimdSqrt                  0      0.00%     83.06% # Type of FU issued
system.cpu0.iq.FU_type_0::SimdFloatAdd              0      0.00%     83.06% # Type of FU issued
system.cpu0.iq.FU_type_0::SimdFloatAlu              0      0.00%     83.06% # Type of FU issued
system.cpu0.iq.FU_type_0::SimdFloatCmp              0      0.00%     83.06% # Type of FU issued
system.cpu0.iq.FU_type_0::SimdFloatCvt              0      0.00%     83.06% # Type of FU issued
system.cpu0.iq.FU_type_0::SimdFloatDiv              0      0.00%     83.06% # Type of FU issued
system.cpu0.iq.FU_type_0::SimdFloatMisc             0      0.00%     83.06% # Type of FU issued
system.cpu0.iq.FU_type_0::SimdFloatMult             0      0.00%     83.06% # Type of FU issued
system.cpu0.iq.FU_type_0::SimdFloatMultAcc            0      0.00%     83.06% # Type of FU issued
system.cpu0.iq.FU_type_0::SimdFloatSqrt             0      0.00%     83.06% # Type of FU issued
system.cpu0.iq.FU_type_0::MemRead              976444     15.88%     98.93% # Type of FU issued
system.cpu0.iq.FU_type_0::MemWrite              62347      1.01%     99.95% # Type of FU issued
system.cpu0.iq.FU_type_0::FloatMemRead           3120      0.05%    100.00% # Type of FU issued
system.cpu0.iq.FU_type_0::FloatMemWrite            63      0.00%    100.00% # Type of FU issued
system.cpu0.iq.FU_type_0::IprAccess                 0      0.00%    100.00% # Type of FU issued
system.cpu0.iq.FU_type_0::InstPrefetch              0      0.00%    100.00% # Type of FU issued
system.cpu0.iq.FU_type_0::total               6149942                       # Type of FU issued
system.cpu0.iq.rate                          0.201408                       # Inst issue rate
system.cpu0.iq.fu_busy_cnt                      18853                       # FU busy when requested
system.cpu0.iq.fu_busy_rate                  0.003066                       # FU busy rate (busy events/executed inst)
system.cpu0.iq.int_inst_queue_reads          42760322                       # Number of integer instruction queue reads
system.cpu0.iq.int_inst_queue_writes         14239801                       # Number of integer instruction queue writes
system.cpu0.iq.int_inst_queue_wakeup_accesses      5881134                       # Number of integer instruction queue wakeup accesses
system.cpu0.iq.fp_inst_queue_reads              39489                       # Number of floating instruction queue reads
system.cpu0.iq.fp_inst_queue_writes             39212                       # Number of floating instruction queue writes
system.cpu0.iq.fp_inst_queue_wakeup_accesses        16976                       # Number of floating instruction queue wakeup accesses
system.cpu0.iq.vec_inst_queue_reads                 0                       # Number of vector instruction queue reads
system.cpu0.iq.vec_inst_queue_writes                0                       # Number of vector instruction queue writes
system.cpu0.iq.vec_inst_queue_wakeup_accesses            0                       # Number of vector instruction queue wakeup accesses
system.cpu0.iq.int_alu_accesses               6126723                       # Number of integer alu accesses
system.cpu0.iq.fp_alu_accesses                  20335                       # Number of floating point alu accesses
system.cpu0.iq.vec_alu_accesses                     0                       # Number of vector alu accesses
system.cpu0.iew.lsq.thread0.forwLoads            4608                       # Number of loads that had data forwarded from stores
system.cpu0.iew.lsq.thread0.invAddrLoads            0                       # Number of loads ignored due to an invalid address
system.cpu0.iew.lsq.thread0.squashedLoads      1076846                       # Number of loads squashed
system.cpu0.iew.lsq.thread0.ignoredResponses          156                       # Number of memory responses ignored because the instruction is squashed
system.cpu0.iew.lsq.thread0.memOrderViolation            1                       # Number of memory ordering violations
system.cpu0.iew.lsq.thread0.squashedStores        56610                       # Number of stores squashed
system.cpu0.iew.lsq.thread0.invAddrSwpfs            0                       # Number of software prefetches ignored due to an invalid address
system.cpu0.iew.lsq.thread0.blockedLoads            0                       # Number of blocked loads due to partial load-store forwarding
system.cpu0.iew.lsq.thread0.rescheduledLoads           34                       # Number of loads that were rescheduled
system.cpu0.iew.lsq.thread0.cacheBlocked         1854                       # Number of times an access to memory failed due to the cache being blocked
system.cpu0.iew.iewIdleCycles                       0                       # Number of cycles IEW is idle
system.cpu0.iew.iewSquashCycles                 90281                       # Number of cycles IEW is squashing
system.cpu0.iew.iewBlockCycles               24187657                       # Number of cycles IEW is blocking
system.cpu0.iew.iewUnblockCycles               335505                       # Number of cycles IEW is unblocking
system.cpu0.iew.iewDispatchedInsts            8652060                       # Number of instructions dispatched to IQ
system.cpu0.iew.iewDispSquashedInsts             6986                       # Number of squashed instructions skipped by dispatch
system.cpu0.iew.iewDispLoadInsts              1653438                       # Number of dispatched load instructions
system.cpu0.iew.iewDispStoreInsts               86324                       # Number of dispatched store instructions
system.cpu0.iew.iewDispNonSpecInsts              2229                       # Number of dispatched non-speculative instructions
system.cpu0.iew.iewIQFullEvents                 23698                       # Number of times the IQ has become full, causing a stall
system.cpu0.iew.iewLSQFullEvents               109611                       # Number of times the LSQ has become full, causing a stall
system.cpu0.iew.memOrderViolationEvents             1                       # Number of memory order violations
system.cpu0.iew.predictedTakenIncorrect         47513                       # Number of branches that were predicted taken incorrectly
system.cpu0.iew.predictedNotTakenIncorrect        51691                       # Number of branches that were predicted not taken incorrectly
system.cpu0.iew.branchMispredicts               99204                       # Number of branch mispredicts detected at execute
system.cpu0.iew.iewExecutedInsts              6030581                       # Number of executed instructions
system.cpu0.iew.iewExecLoadInsts               932411                       # Number of load instructions executed
system.cpu0.iew.iewExecSquashedInsts           119362                       # Number of squashed instructions skipped in execute
system.cpu0.iew.exec_swp                            0                       # number of swp insts executed
system.cpu0.iew.exec_nop                            0                       # number of nop insts executed
system.cpu0.iew.exec_refs                      990241                       # number of memory reference insts executed
system.cpu0.iew.exec_branches                  709978                       # Number of branches executed
system.cpu0.iew.exec_stores                     57830                       # Number of stores executed
system.cpu0.iew.exec_rate                    0.197499                       # Inst execution rate
system.cpu0.iew.wb_sent                       5919843                       # cumulative count of insts sent to commit
system.cpu0.iew.wb_count                      5898110                       # cumulative count of insts written-back
system.cpu0.iew.wb_producers                  4395421                       # num instructions producing a value
system.cpu0.iew.wb_consumers                  6887074                       # num instructions consuming a value
system.cpu0.iew.wb_rate                      0.193161                       # insts written-back per cycle
system.cpu0.iew.wb_fanout                    0.638213                       # average fanout of values written-back
system.cpu0.commit.commitSquashedInsts        5628137                       # The number of squashed insts skipped by commit
system.cpu0.commit.branchMispredicts            90280                       # The number of times a branch was mispredicted
system.cpu0.commit.committed_per_cycle::samples     29670749                       # Number of insts commited each cycle
system.cpu0.commit.committed_per_cycle::mean     0.101955                       # Number of insts commited each cycle
system.cpu0.commit.committed_per_cycle::stdev     0.589635                       # Number of insts commited each cycle
system.cpu0.commit.committed_per_cycle::underflows            0      0.00%      0.00% # Number of insts commited each cycle
system.cpu0.commit.committed_per_cycle::0     28365209     95.60%     95.60% # Number of insts commited each cycle
system.cpu0.commit.committed_per_cycle::1       603976      2.04%     97.64% # Number of insts commited each cycle
system.cpu0.commit.committed_per_cycle::2       139024      0.47%     98.10% # Number of insts commited each cycle
system.cpu0.commit.committed_per_cycle::3       382592      1.29%     99.39% # Number of insts commited each cycle
system.cpu0.commit.committed_per_cycle::4        75505      0.25%     99.65% # Number of insts commited each cycle
system.cpu0.commit.committed_per_cycle::5        41559      0.14%     99.79% # Number of insts commited each cycle
system.cpu0.commit.committed_per_cycle::6         6482      0.02%     99.81% # Number of insts commited each cycle
system.cpu0.commit.committed_per_cycle::7         4633      0.02%     99.83% # Number of insts commited each cycle
system.cpu0.commit.committed_per_cycle::8        51769      0.17%    100.00% # Number of insts commited each cycle
system.cpu0.commit.committed_per_cycle::overflows            0      0.00%    100.00% # Number of insts commited each cycle
system.cpu0.commit.committed_per_cycle::min_value            0                       # Number of insts commited each cycle
system.cpu0.commit.committed_per_cycle::max_value            8                       # Number of insts commited each cycle
system.cpu0.commit.committed_per_cycle::total     29670749                       # Number of insts commited each cycle
system.cpu0.commit.committedInsts             1513640                       # Number of instructions committed
system.cpu0.commit.committedOps               3025090                       # Number of ops (including micro ops) committed
system.cpu0.commit.swp_count                        0                       # Number of s/w prefetches committed
system.cpu0.commit.refs                        606301                       # Number of memory references committed
system.cpu0.commit.loads                       576587                       # Number of loads committed
system.cpu0.commit.membars                          0                       # Number of memory barriers committed
system.cpu0.commit.branches                    546865                       # Number of branches committed
system.cpu0.commit.vec_insts                        0                       # Number of committed Vector instructions.
system.cpu0.commit.fp_insts                     11830                       # Number of committed floating point instructions.
system.cpu0.commit.int_insts                  3013129                       # Number of committed integer instructions.
system.cpu0.commit.function_calls                5225                       # Number of function calls committed.
system.cpu0.commit.op_class_0::No_OpClass         3559      0.12%      0.12% # Class of committed instruction
system.cpu0.commit.op_class_0::IntAlu         2396312     79.21%     79.33% # Class of committed instruction
system.cpu0.commit.op_class_0::IntMult            209      0.01%     79.34% # Class of committed instruction
system.cpu0.commit.op_class_0::IntDiv            8593      0.28%     79.62% # Class of committed instruction
system.cpu0.commit.op_class_0::FloatAdd         10116      0.33%     79.96% # Class of committed instruction
system.cpu0.commit.op_class_0::FloatCmp             0      0.00%     79.96% # Class of committed instruction
system.cpu0.commit.op_class_0::FloatCvt             0      0.00%     79.96% # Class of committed instruction
system.cpu0.commit.op_class_0::FloatMult            0      0.00%     79.96% # Class of committed instruction
system.cpu0.commit.op_class_0::FloatMultAcc            0      0.00%     79.96% # Class of committed instruction
system.cpu0.commit.op_class_0::FloatDiv             0      0.00%     79.96% # Class of committed instruction
system.cpu0.commit.op_class_0::FloatMisc            0      0.00%     79.96% # Class of committed instruction
system.cpu0.commit.op_class_0::FloatSqrt            0      0.00%     79.96% # Class of committed instruction
system.cpu0.commit.op_class_0::SimdAdd              0      0.00%     79.96% # Class of committed instruction
system.cpu0.commit.op_class_0::SimdAddAcc            0      0.00%     79.96% # Class of committed instruction
system.cpu0.commit.op_class_0::SimdAlu              0      0.00%     79.96% # Class of committed instruction
system.cpu0.commit.op_class_0::SimdCmp              0      0.00%     79.96% # Class of committed instruction
system.cpu0.commit.op_class_0::SimdCvt              0      0.00%     79.96% # Class of committed instruction
system.cpu0.commit.op_class_0::SimdMisc             0      0.00%     79.96% # Class of committed instruction
system.cpu0.commit.op_class_0::SimdMult             0      0.00%     79.96% # Class of committed instruction
system.cpu0.commit.op_class_0::SimdMultAcc            0      0.00%     79.96% # Class of committed instruction
system.cpu0.commit.op_class_0::SimdShift            0      0.00%     79.96% # Class of committed instruction
system.cpu0.commit.op_class_0::SimdShiftAcc            0      0.00%     79.96% # Class of committed instruction
system.cpu0.commit.op_class_0::SimdSqrt             0      0.00%     79.96% # Class of committed instruction
system.cpu0.commit.op_class_0::SimdFloatAdd            0      0.00%     79.96% # Class of committed instruction
system.cpu0.commit.op_class_0::SimdFloatAlu            0      0.00%     79.96% # Class of committed instruction
system.cpu0.commit.op_class_0::SimdFloatCmp            0      0.00%     79.96% # Class of committed instruction
system.cpu0.commit.op_class_0::SimdFloatCvt            0      0.00%     79.96% # Class of committed instruction
system.cpu0.commit.op_class_0::SimdFloatDiv            0      0.00%     79.96% # Class of committed instruction
system.cpu0.commit.op_class_0::SimdFloatMisc            0      0.00%     79.96% # Class of committed instruction
system.cpu0.commit.op_class_0::SimdFloatMult            0      0.00%     79.96% # Class of committed instruction
system.cpu0.commit.op_class_0::SimdFloatMultAcc            0      0.00%     79.96% # Class of committed instruction
system.cpu0.commit.op_class_0::SimdFloatSqrt            0      0.00%     79.96% # Class of committed instruction
system.cpu0.commit.op_class_0::MemRead         574873     19.00%     98.96% # Class of committed instruction
system.cpu0.commit.op_class_0::MemWrite         29714      0.98%     99.94% # Class of committed instruction
system.cpu0.commit.op_class_0::FloatMemRead         1714      0.06%    100.00% # Class of committed instruction
system.cpu0.commit.op_class_0::FloatMemWrite            0      0.00%    100.00% # Class of committed instruction
system.cpu0.commit.op_class_0::IprAccess            0      0.00%    100.00% # Class of committed instruction
system.cpu0.commit.op_class_0::InstPrefetch            0      0.00%    100.00% # Class of committed instruction
system.cpu0.commit.op_class_0::total          3025090                       # Class of committed instruction
system.cpu0.commit.bw_lim_events                51769                       # number cycles where commit BW limit reached
system.cpu0.rob.rob_reads                    38272207                       # The number of ROB reads
system.cpu0.rob.rob_writes                   18112052                       # The number of ROB writes
system.cpu0.timesIdled                            520                       # Number of times that the entire CPU went into an idle state and unscheduled itself
system.cpu0.idleCycles                          60248                       # Total number of cycles that the CPU has spent unscheduled due to idling
system.cpu0.committedInsts                    1513640                       # Number of Instructions Simulated
system.cpu0.committedOps                      3025090                       # Number of Ops (including micro ops) Simulated
system.cpu0.cpi                             20.173019                       # CPI: Cycles Per Instruction
system.cpu0.cpi_total                       20.173019                       # CPI: Total CPI of All Threads
system.cpu0.ipc                              0.049571                       # IPC: Instructions Per Cycle
system.cpu0.ipc_total                        0.049571                       # IPC: Total IPC of All Threads
system.cpu0.int_regfile_reads                 5987363                       # number of integer regfile reads
system.cpu0.int_regfile_writes                5136749                       # number of integer regfile writes
system.cpu0.fp_regfile_reads                    30349                       # number of floating regfile reads
system.cpu0.fp_regfile_writes                   15099                       # number of floating regfile writes
system.cpu0.cc_regfile_reads                  3714716                       # number of cc regfile reads
system.cpu0.cc_regfile_writes                 1607001                       # number of cc regfile writes
system.cpu0.misc_regfile_reads                3175323                       # number of misc regfile reads
system.cpu0.dcache.tags.pwrStateResidencyTicks::UNDEFINED  15267344125                       # Cumulative time (in ticks) in various power states
system.cpu0.dcache.tags.replacements           300728                       # number of replacements
system.cpu0.dcache.tags.tagsinuse                1024                       # Cycle average of tags in use
system.cpu0.dcache.tags.total_refs             415630                       # Total number of references to valid blocks.
system.cpu0.dcache.tags.sampled_refs           300728                       # Sample count of references to valid blocks.
system.cpu0.dcache.tags.avg_refs             1.382079                       # Average number of references to valid blocks.
system.cpu0.dcache.tags.warmup_cycle                0                       # Cycle when the warmup percentage was hit.
system.cpu0.dcache.tags.occ_blocks::cpu0.data         1024                       # Average occupied blocks per requestor
system.cpu0.dcache.tags.occ_percent::cpu0.data            1                       # Average percentage of cache occupancy
system.cpu0.dcache.tags.occ_percent::total            1                       # Average percentage of cache occupancy
system.cpu0.dcache.tags.occ_task_id_blocks::1024         1024                       # Occupied blocks per task id
system.cpu0.dcache.tags.age_task_id_blocks_1024::0          669                       # Occupied blocks per task id
system.cpu0.dcache.tags.age_task_id_blocks_1024::1          344                       # Occupied blocks per task id
system.cpu0.dcache.tags.age_task_id_blocks_1024::2           11                       # Occupied blocks per task id
system.cpu0.dcache.tags.occ_task_id_percent::1024            1                       # Percentage of cache occupancy per task id
system.cpu0.dcache.tags.tag_accesses          4109932                       # Number of tag accesses
system.cpu0.dcache.tags.data_accesses         4109932                       # Number of data accesses
system.cpu0.dcache.pwrStateResidencyTicks::UNDEFINED  15267344125                       # Cumulative time (in ticks) in various power states
system.cpu0.dcache.ReadReq_hits::cpu0.data       389602                       # number of ReadReq hits
system.cpu0.dcache.ReadReq_hits::total         389602                       # number of ReadReq hits
system.cpu0.dcache.WriteReq_hits::cpu0.data        28628                       # number of WriteReq hits
system.cpu0.dcache.WriteReq_hits::total         28628                       # number of WriteReq hits
system.cpu0.dcache.demand_hits::cpu0.data       418230                       # number of demand (read+write) hits
system.cpu0.dcache.demand_hits::total          418230                       # number of demand (read+write) hits
system.cpu0.dcache.overall_hits::cpu0.data       418230                       # number of overall hits
system.cpu0.dcache.overall_hits::total         418230                       # number of overall hits
system.cpu0.dcache.ReadReq_misses::cpu0.data       532985                       # number of ReadReq misses
system.cpu0.dcache.ReadReq_misses::total       532985                       # number of ReadReq misses
system.cpu0.dcache.WriteReq_misses::cpu0.data         1086                       # number of WriteReq misses
system.cpu0.dcache.WriteReq_misses::total         1086                       # number of WriteReq misses
system.cpu0.dcache.demand_misses::cpu0.data       534071                       # number of demand (read+write) misses
system.cpu0.dcache.demand_misses::total        534071                       # number of demand (read+write) misses
system.cpu0.dcache.overall_misses::cpu0.data       534071                       # number of overall misses
system.cpu0.dcache.overall_misses::total       534071                       # number of overall misses
system.cpu0.dcache.ReadReq_miss_latency::cpu0.data  35022408500                       # number of ReadReq miss cycles
system.cpu0.dcache.ReadReq_miss_latency::total  35022408500                       # number of ReadReq miss cycles
system.cpu0.dcache.WriteReq_miss_latency::cpu0.data     40236499                       # number of WriteReq miss cycles
system.cpu0.dcache.WriteReq_miss_latency::total     40236499                       # number of WriteReq miss cycles
system.cpu0.dcache.demand_miss_latency::cpu0.data  35062644999                       # number of demand (read+write) miss cycles
system.cpu0.dcache.demand_miss_latency::total  35062644999                       # number of demand (read+write) miss cycles
system.cpu0.dcache.overall_miss_latency::cpu0.data  35062644999                       # number of overall miss cycles
system.cpu0.dcache.overall_miss_latency::total  35062644999                       # number of overall miss cycles
system.cpu0.dcache.ReadReq_accesses::cpu0.data       922587                       # number of ReadReq accesses(hits+misses)
system.cpu0.dcache.ReadReq_accesses::total       922587                       # number of ReadReq accesses(hits+misses)
system.cpu0.dcache.WriteReq_accesses::cpu0.data        29714                       # number of WriteReq accesses(hits+misses)
system.cpu0.dcache.WriteReq_accesses::total        29714                       # number of WriteReq accesses(hits+misses)
system.cpu0.dcache.demand_accesses::cpu0.data       952301                       # number of demand (read+write) accesses
system.cpu0.dcache.demand_accesses::total       952301                       # number of demand (read+write) accesses
system.cpu0.dcache.overall_accesses::cpu0.data       952301                       # number of overall (read+write) accesses
system.cpu0.dcache.overall_accesses::total       952301                       # number of overall (read+write) accesses
system.cpu0.dcache.ReadReq_miss_rate::cpu0.data     0.577707                       # miss rate for ReadReq accesses
system.cpu0.dcache.ReadReq_miss_rate::total     0.577707                       # miss rate for ReadReq accesses
system.cpu0.dcache.WriteReq_miss_rate::cpu0.data     0.036548                       # miss rate for WriteReq accesses
system.cpu0.dcache.WriteReq_miss_rate::total     0.036548                       # miss rate for WriteReq accesses
system.cpu0.dcache.demand_miss_rate::cpu0.data     0.560822                       # miss rate for demand accesses
system.cpu0.dcache.demand_miss_rate::total     0.560822                       # miss rate for demand accesses
system.cpu0.dcache.overall_miss_rate::cpu0.data     0.560822                       # miss rate for overall accesses
system.cpu0.dcache.overall_miss_rate::total     0.560822                       # miss rate for overall accesses
system.cpu0.dcache.ReadReq_avg_miss_latency::cpu0.data 65709.932737                       # average ReadReq miss latency
system.cpu0.dcache.ReadReq_avg_miss_latency::total 65709.932737                       # average ReadReq miss latency
[...]
system.l2.ReadSharedReq_hits::cpu0.data        116282                       # number of ReadSharedReq hits
system.l2.ReadSharedReq_hits::total            116282                       # number of ReadSharedReq hits
system.l2.demand_hits::cpu0.data               117080                       # number of demand (read+write) hits
system.l2.demand_hits::total                   117080                       # number of demand (read+write) hits
system.l2.overall_hits::cpu0.data              117080                       # number of overall hits
system.l2.overall_hits::total                  117080                       # number of overall hits
system.l2.ReadExReq_misses::cpu0.data             281                       # number of ReadExReq misses
system.l2.ReadExReq_misses::total                 281                       # number of ReadExReq misses
system.l2.ReadSharedReq_misses::cpu0.data       183369                       # number of ReadSharedReq misses
system.l2.ReadSharedReq_misses::total          183369                       # number of ReadSharedReq misses
system.l2.demand_misses::cpu0.data             183650                       # number of demand (read+write) misses
system.l2.demand_misses::total                 183650                       # number of demand (read+write) misses
system.l2.overall_misses::cpu0.data            183650                       # number of overall misses
system.l2.overall_misses::total                183650                       # number of overall misses
system.l2.ReadExReq_miss_latency::cpu0.data     28213500                       # number of ReadExReq miss cycles
system.l2.ReadExReq_miss_latency::total      28213500                       # number of ReadExReq miss cycles
system.l2.ReadSharedReq_miss_latency::cpu0.data  17463215500                       # number of ReadSharedReq miss cycles
system.l2.ReadSharedReq_miss_latency::total  17463215500                       # number of ReadSharedReq miss cycles
system.l2.demand_miss_latency::cpu0.data  17491429000                       # number of demand (read+write) miss cycles
system.l2.demand_miss_latency::total      17491429000                       # number of demand (read+write) miss cycles
system.l2.overall_miss_latency::cpu0.data  17491429000                       # number of overall miss cycles
system.l2.overall_miss_latency::total     17491429000                       # number of overall miss cycles
system.l2.WritebackDirty_accesses::writebacks         2938                       # number of WritebackDirty accesses(hits+misses)
system.l2.WritebackDirty_accesses::total         2938                       # number of WritebackDirty accesses(hits+misses)
system.l2.ReadExReq_accesses::cpu0.data          1079                       # number of ReadExReq accesses(hits+misses)
system.l2.ReadExReq_accesses::total              1079                       # number of ReadExReq accesses(hits+misses)
system.l2.ReadSharedReq_accesses::cpu0.data       299651                       # number of ReadSharedReq accesses(hits+misses)
system.l2.ReadSharedReq_accesses::total        299651                       # number of ReadSharedReq accesses(hits+misses)
system.l2.demand_accesses::cpu0.data           300730                       # number of demand (read+write) accesses
system.l2.demand_accesses::total               300730                       # number of demand (read+write) accesses
system.l2.overall_accesses::cpu0.data          300730                       # number of overall (read+write) accesses
system.l2.overall_accesses::total              300730                       # number of overall (read+write) accesses
system.l2.ReadExReq_miss_rate::cpu0.data     0.260426                       # miss rate for ReadExReq accesses
system.l2.ReadExReq_miss_rate::total         0.260426                       # miss rate for ReadExReq accesses
system.l2.ReadSharedReq_miss_rate::cpu0.data     0.611942                       # miss rate for ReadSharedReq accesses
system.l2.ReadSharedReq_miss_rate::total     0.611942                       # miss rate for ReadSharedReq accesses
system.l2.demand_miss_rate::cpu0.data        0.610681                       # miss rate for demand accesses
system.l2.demand_miss_rate::total            0.610681                       # miss rate for demand accesses
system.l2.overall_miss_rate::cpu0.data       0.610681                       # miss rate for overall accesses
system.l2.overall_miss_rate::total           0.610681                       # miss rate for overall accesses
system.l2.ReadExReq_avg_miss_latency::cpu0.data 100403.914591                       # average ReadExReq miss latency
system.l2.ReadExReq_avg_miss_latency::total 100403.914591                       # average ReadExReq miss latency
system.l2.ReadSharedReq_avg_miss_latency::cpu0.data 95235.375118                       # average ReadSharedReq miss latency
system.l2.ReadSharedReq_avg_miss_latency::total 95235.375118                       # average ReadSharedReq miss latency
system.l2.demand_avg_miss_latency::cpu0.data 95243.283420                       # average overall miss latency
system.l2.demand_avg_miss_latency::total 95243.283420                       # average overall miss latency
system.l2.overall_avg_miss_latency::cpu0.data 95243.283420                       # average overall miss latency
system.l2.overall_avg_miss_latency::total 95243.283420                       # average overall miss latency
system.l2.blocked_cycles::no_mshrs                  0                       # number of cycles access was blocked
system.l2.blocked_cycles::no_targets                0                       # number of cycles access was blocked
system.l2.blocked::no_mshrs                         0                       # number of cycles access was blocked
system.l2.blocked::no_targets                       0                       # number of cycles access was blocked
system.l2.avg_blocked_cycles::no_mshrs            nan                       # average number of cycles each access was blocked
system.l2.avg_blocked_cycles::no_targets          nan                       # average number of cycles each access was blocked
system.l2.writebacks::writebacks                  376                       # number of writebacks
system.l2.writebacks::total                       376                       # number of writebacks
system.l2.ReadExReq_mshr_misses::cpu0.data          281                       # number of ReadExReq MSHR misses
system.l2.ReadExReq_mshr_misses::total            281                       # number of ReadExReq MSHR misses
system.l2.ReadSharedReq_mshr_misses::cpu0.data       183369                       # number of ReadSharedReq MSHR misses
system.l2.ReadSharedReq_mshr_misses::total       183369                       # number of ReadSharedReq MSHR misses
system.l2.demand_mshr_misses::cpu0.data        183650                       # number of demand (read+write) MSHR misses
system.l2.demand_mshr_misses::total            183650                       # number of demand (read+write) MSHR misses
system.l2.overall_mshr_misses::cpu0.data       183650                       # number of overall MSHR misses
system.l2.overall_mshr_misses::total           183650                       # number of overall MSHR misses
system.l2.ReadExReq_mshr_miss_latency::cpu0.data     25403500                       # number of ReadExReq MSHR miss cycles
system.l2.ReadExReq_mshr_miss_latency::total     25403500                       # number of ReadExReq MSHR miss cycles
system.l2.ReadSharedReq_mshr_miss_latency::cpu0.data  15629535500                       # number of ReadSharedReq MSHR miss cycles
system.l2.ReadSharedReq_mshr_miss_latency::total  15629535500                       # number of ReadSharedReq MSHR miss cycles
system.l2.demand_mshr_miss_latency::cpu0.data  15654939000                       # number of demand (read+write) MSHR miss cycles
system.l2.demand_mshr_miss_latency::total  15654939000                       # number of demand (read+write) MSHR miss cycles
system.l2.overall_mshr_miss_latency::cpu0.data  15654939000                       # number of overall MSHR miss cycles
system.l2.overall_mshr_miss_latency::total  15654939000                       # number of overall MSHR miss cycles
system.l2.ReadExReq_mshr_miss_rate::cpu0.data     0.260426                       # mshr miss rate for ReadExReq accesses
system.l2.ReadExReq_mshr_miss_rate::total     0.260426                       # mshr miss rate for ReadExReq accesses
system.l2.ReadSharedReq_mshr_miss_rate::cpu0.data     0.611942                       # mshr miss rate for ReadSharedReq accesses
system.l2.ReadSharedReq_mshr_miss_rate::total     0.611942                       # mshr miss rate for ReadSharedReq accesses
system.l2.demand_mshr_miss_rate::cpu0.data     0.610681                       # mshr miss rate for demand accesses
system.l2.demand_mshr_miss_rate::total       0.610681                       # mshr miss rate for demand accesses
system.l2.overall_mshr_miss_rate::cpu0.data     0.610681                       # mshr miss rate for overall accesses
system.l2.overall_mshr_miss_rate::total      0.610681                       # mshr miss rate for overall accesses
system.l2.ReadExReq_avg_mshr_miss_latency::cpu0.data 90403.914591                       # average ReadExReq mshr miss latency
system.l2.ReadExReq_avg_mshr_miss_latency::total 90403.914591                       # average ReadExReq mshr miss latency
system.l2.ReadSharedReq_avg_mshr_miss_latency::cpu0.data 85235.429653                       # average ReadSharedReq mshr miss latency
system.l2.ReadSharedReq_avg_mshr_miss_latency::total 85235.429653                       # average ReadSharedReq mshr miss latency
system.l2.demand_avg_mshr_miss_latency::cpu0.data 85243.337871                       # average overall mshr miss latency
system.l2.demand_avg_mshr_miss_latency::total 85243.337871                       # average overall mshr miss latency
system.l2.overall_avg_mshr_miss_latency::cpu0.data 85243.337871                       # average overall mshr miss latency
system.l2.overall_avg_mshr_miss_latency::total 85243.337871                       # average overall mshr miss latency
system.membus.snoop_filter.tot_requests        367297                       # Total number of requests made to the snoop filter.
system.membus.snoop_filter.hit_single_requests       183649                       # Number of requests hitting in the snoop filter with a single holder of the requested data.
system.membus.snoop_filter.hit_multi_requests            0                       # Number of requests hitting in the snoop filter with multiple (>1) holders of the requested data.
system.membus.snoop_filter.tot_snoops               0                       # Total number of snoops made to the snoop filter.
system.membus.snoop_filter.hit_single_snoops            0                       # Number of snoops hitting in the snoop filter with a single holder of the requested data.
system.membus.snoop_filter.hit_multi_snoops            0                       # Number of snoops hitting in the snoop filter with multiple (>1) holders of the requested data.
system.membus.pwrStateResidencyTicks::UNDEFINED  15267344125                       # Cumulative time (in ticks) in various power states
system.membus.trans_dist::ReadResp             183368                       # Transaction distribution
system.membus.trans_dist::WritebackDirty          376                       # Transaction distribution
system.membus.trans_dist::CleanEvict           183271                       # Transaction distribution
system.membus.trans_dist::ReadExReq               281                       # Transaction distribution
system.membus.trans_dist::ReadExResp              281                       # Transaction distribution
system.membus.trans_dist::ReadSharedReq        183369                       # Transaction distribution
system.membus.pkt_count_system.l2.mem_side::system.mem_ctrls.port       550946                       # Packet count per connected master and slave (bytes)
system.membus.pkt_count_system.l2.mem_side::total       550946                       # Packet count per connected master and slave (bytes)
system.membus.pkt_count::total                 550946                       # Packet count per connected master and slave (bytes)
system.membus.pkt_size_system.l2.mem_side::system.mem_ctrls.port     11777600                       # Cumulative packet size per connected master and slave (bytes)
system.membus.pkt_size_system.l2.mem_side::total     11777600                       # Cumulative packet size per connected master and slave (bytes)
system.membus.pkt_size::total                11777600                       # Cumulative packet size per connected master and slave (bytes)
system.membus.snoops                                0                       # Total snoops (count)
system.membus.snoopTraffic                          0                       # Total snoop traffic (bytes)
system.membus.snoop_fanout::samples            183650                       # Request fanout histogram
system.membus.snoop_fanout::mean                    0                       # Request fanout histogram
system.membus.snoop_fanout::stdev                   0                       # Request fanout histogram
system.membus.snoop_fanout::underflows              0      0.00%      0.00% # Request fanout histogram
system.membus.snoop_fanout::0                  183650    100.00%    100.00% # Request fanout histogram
system.membus.snoop_fanout::1                       0      0.00%    100.00% # Request fanout histogram
system.membus.snoop_fanout::overflows               0      0.00%    100.00% # Request fanout histogram
system.membus.snoop_fanout::min_value               0                       # Request fanout histogram
system.membus.snoop_fanout::max_value               0                       # Request fanout histogram
system.membus.snoop_fanout::total              183650                       # Request fanout histogram
system.membus.reqLayer8.occupancy           430627000                       # Layer occupancy (ticks)
system.membus.reqLayer8.utilization               2.8                       # Layer utilization (%)
system.membus.respLayer1.occupancy          995610250                       # Layer occupancy (ticks)
system.membus.respLayer1.utilization              6.5                       # Layer utilization (%)
system.tol2bus.snoop_filter.tot_requests       601458                       # Total number of requests made to the snoop filter.
system.tol2bus.snoop_filter.hit_single_requests       300729                       # Number of requests hitting in the snoop filter with a single holder of the requested data.
system.tol2bus.snoop_filter.hit_multi_requests          624                       # Number of requests hitting in the snoop filter with multiple (>1) holders of the requested data.
system.tol2bus.snoop_filter.tot_snoops              2                       # Total number of snoops made to the snoop filter.
system.tol2bus.snoop_filter.hit_single_snoops            2                       # Number of snoops hitting in the snoop filter with a single holder of the requested data.
system.tol2bus.snoop_filter.hit_multi_snoops            0                       # Number of snoops hitting in the snoop filter with multiple (>1) holders of the requested data.
system.tol2bus.pwrStateResidencyTicks::UNDEFINED  15267344125                       # Cumulative time (in ticks) in various power states
system.tol2bus.trans_dist::ReadResp            299649                       # Transaction distribution
system.tol2bus.trans_dist::WritebackDirty         3314                       # Transaction distribution
system.tol2bus.trans_dist::CleanEvict          481063                       # Transaction distribution
system.tol2bus.trans_dist::ReadExReq             1079                       # Transaction distribution
system.tol2bus.trans_dist::ReadExResp            1079                       # Transaction distribution
system.tol2bus.trans_dist::ReadSharedReq       299651                       # Transaction distribution
system.tol2bus.pkt_count_system.cpu0.dcache.mem_side::system.l2.cpu_side       902186                       # Packet count per connected master and slave (bytes)
system.tol2bus.pkt_count::total                902186                       # Packet count per connected master and slave (bytes)
system.tol2bus.pkt_size_system.cpu0.dcache.mem_side::system.l2.cpu_side     19434624                       # Cumulative packet size per connected master and slave (bytes)
system.tol2bus.pkt_size::total               19434624                       # Cumulative packet size per connected master and slave (bytes)
system.tol2bus.snoops                          183649                       # Total snoops (count)
system.tol2bus.snoopTraffic                     24064                       # Total snoop traffic (bytes)
system.tol2bus.snoop_fanout::samples           484379                       # Request fanout histogram
system.tol2bus.snoop_fanout::mean            0.001294                       # Request fanout histogram
system.tol2bus.snoop_fanout::stdev           0.035955                       # Request fanout histogram
system.tol2bus.snoop_fanout::underflows             0      0.00%      0.00% # Request fanout histogram
system.tol2bus.snoop_fanout::0                 483752     99.87%     99.87% # Request fanout histogram
system.tol2bus.snoop_fanout::1                    627      0.13%    100.00% # Request fanout histogram
system.tol2bus.snoop_fanout::2                      0      0.00%    100.00% # Request fanout histogram
system.tol2bus.snoop_fanout::3                      0      0.00%    100.00% # Request fanout histogram
system.tol2bus.snoop_fanout::4                      0      0.00%    100.00% # Request fanout histogram
system.tol2bus.snoop_fanout::5                      0      0.00%    100.00% # Request fanout histogram
system.tol2bus.snoop_fanout::6                      0      0.00%    100.00% # Request fanout histogram
system.tol2bus.snoop_fanout::7                      0      0.00%    100.00% # Request fanout histogram
system.tol2bus.snoop_fanout::8                      0      0.00%    100.00% # Request fanout histogram
system.tol2bus.snoop_fanout::9                      0      0.00%    100.00% # Request fanout histogram
system.tol2bus.snoop_fanout::10                     0      0.00%    100.00% # Request fanout histogram
system.tol2bus.snoop_fanout::11                     0      0.00%    100.00% # Request fanout histogram
system.tol2bus.snoop_fanout::12                     0      0.00%    100.00% # Request fanout histogram
system.tol2bus.snoop_fanout::13                     0      0.00%    100.00% # Request fanout histogram
system.tol2bus.snoop_fanout::14                     0      0.00%    100.00% # Request fanout histogram
system.tol2bus.snoop_fanout::15                     0      0.00%    100.00% # Request fanout histogram
system.tol2bus.snoop_fanout::16                     0      0.00%    100.00% # Request fanout histogram
system.tol2bus.snoop_fanout::overflows              0      0.00%    100.00% # Request fanout histogram
system.tol2bus.snoop_fanout::min_value              0                       # Request fanout histogram
system.tol2bus.snoop_fanout::max_value              1                       # Request fanout histogram
system.tol2bus.snoop_fanout::total             484379                       # Request fanout histogram
system.tol2bus.reqLayer0.occupancy          303667000                       # Layer occupancy (ticks)
system.tol2bus.reqLayer0.utilization              2.0                       # Layer utilization (%)
system.tol2bus.respLayer1.occupancy         451092000                       # Layer occupancy (ticks)
system.tol2bus.respLayer1.utilization             3.0                       # Layer utilization (%)

---------- End Simulation Statistics   ----------
