
---------- Begin Simulation Statistics ----------
sim_seconds                                  0.015267                       # Number of seconds simulated
sim_ticks                                 15267344125                       # Number of ticks simulated
final_tick                               6122204994125                       # Number of ticks from beginning of simulation (restored from checkpoints and never reset)
sim_freq                                 1000000000000                       # Frequency of simulated ticks
host_inst_rate                              125079006                       # Simulator instruction rate (inst/s)
host_op_rate                                232842275                       # Simulator op (including micro ops) rate (op/s)
host_tick_rate                              321985167                       # Simulator tick rate (ticks/s)
host_mem_usage                                2332532                       # Number of bytes of host memory used
host_seconds                                    47.42                       # Real time elapsed on the host
sim_insts                                  5930781036                       # Number of instructions simulated
sim_ops                                   11040516365                       # Number of ops (including micro ops) simulated
system.voltage_domain.voltage                       1                       # Voltage in Volts
system.clk_domain.clock                          1000                       # Clock period in ticks
system.mem_ctrls.pwrStateResidencyTicks::UNDEFINED  15267344125                       # Cumulative time (in ticks) in various power states
system.mem_ctrls.bytes_read::cpu0.data       11862528                       # Number of bytes read from this memory
system.mem_ctrls.bytes_read::total           11862528                       # Number of bytes read from this memory
system.mem_ctrls.bytes_written::writebacks        22464                       # Number of bytes written to this memory
system.mem_ctrls.bytes_written::total           22464                       # Number of bytes written to this memory
system.mem_ctrls.num_reads::cpu0.data          185352                       # Number of read requests responded to by this memory
system.mem_ctrls.num_reads::total              185352                       # Number of read requests responded to by this memory
system.mem_ctrls.num_writes::writebacks           351                       # Number of write requests responded to by this memory
system.mem_ctrls.num_writes::total                351                       # Number of write requests responded to by this memory
system.mem_ctrls.bw_read::cpu0.data         776987006                       # Total read bandwidth from this memory (bytes/s)
system.mem_ctrls.bw_read::total             776987006                       # Total read bandwidth from this memory (bytes/s)
system.mem_ctrls.bw_write::writebacks         1471376                       # Write bandwidth from this memory (bytes/s)
system.mem_ctrls.bw_write::total              1471376                       # Write bandwidth from this memory (bytes/s)
system.mem_ctrls.bw_total::writebacks         1471376                       # Total bandwidth to/from this memory (bytes/s)
system.mem_ctrls.bw_total::cpu0.data        776987006                       # Total bandwidth to/from this memory (bytes/s)
system.mem_ctrls.bw_total::total            778458382                       # Total bandwidth to/from this memory (bytes/s)
system.mem_ctrls.readReqs                      185350                       # Number of read requests accepted
system.mem_ctrls.writeReqs                        351                       # Number of write requests accepted
system.mem_ctrls.readBursts                    185350                       # Number of DRAM read bursts, including those serviced by the write queue
system.mem_ctrls.writeBursts                      351                       # Number of DRAM write bursts, including those merged in the write queue
system.mem_ctrls.bytesReadDRAM               11860032                       # Total number of bytes read from DRAM
system.mem_ctrls.bytesReadWrQ                    2368                       # Total number of bytes read from write queue
system.mem_ctrls.bytesWritten                   22656                       # Total number of bytes written to DRAM
system.mem_ctrls.bytesReadSys                11862400                       # Total read bytes from the system interface side
system.mem_ctrls.bytesWrittenSys                22464                       # Total written bytes from the system interface side
system.mem_ctrls.servicedByWrQ                     37                       # Number of DRAM read bursts serviced by the write queue
system.mem_ctrls.mergedWrBursts                     0                       # Number of DRAM write bursts merged with an existing one
system.mem_ctrls.neitherReadNorWriteReqs            0                       # Number of requests that are neither read nor write
system.mem_ctrls.perBankRdBursts::0             11498                       # Per bank write bursts
system.mem_ctrls.perBankRdBursts::1             11244                       # Per bank write bursts
system.mem_ctrls.perBankRdBursts::2             11281                       # Per bank write bursts
system.mem_ctrls.perBankRdBursts::3             11717                       # Per bank write bursts
system.mem_ctrls.perBankRdBursts::4             12010                       # Per bank write bursts
system.mem_ctrls.perBankRdBursts::5             11892                       # Per bank write bursts
system.mem_ctrls.perBankRdBursts::6             11760                       # Per bank write bursts
system.mem_ctrls.perBankRdBursts::7             11582                       # Per bank write bursts
system.mem_ctrls.perBankRdBursts::8             11426                       # Per bank write bursts
system.mem_ctrls.perBankRdBursts::9             11451                       # Per bank write bursts
system.mem_ctrls.perBankRdBursts::10            11702                       # Per bank write bursts
system.mem_ctrls.perBankRdBursts::11            11452                       # Per bank write bursts
system.mem_ctrls.perBankRdBursts::12            11537                       # Per bank write bursts
system.mem_ctrls.perBankRdBursts::13            11705                       # Per bank write bursts
system.mem_ctrls.perBankRdBursts::14            11581                       # Per bank write bursts
system.mem_ctrls.perBankRdBursts::15            11475                       # Per bank write bursts
system.mem_ctrls.perBankWrBursts::0                58                       # Per bank write bursts
system.mem_ctrls.perBankWrBursts::1                 0                       # Per bank write bursts
system.mem_ctrls.perBankWrBursts::2                 0                       # Per bank write bursts
system.mem_ctrls.perBankWrBursts::3                89                       # Per bank write bursts
system.mem_ctrls.perBankWrBursts::4                10                       # Per bank write bursts
system.mem_ctrls.perBankWrBursts::5                11                       # Per bank write bursts
system.mem_ctrls.perBankWrBursts::6                 0                       # Per bank write bursts
system.mem_ctrls.perBankWrBursts::7                 0                       # Per bank write bursts
system.mem_ctrls.perBankWrBursts::8                 0                       # Per bank write bursts
system.mem_ctrls.perBankWrBursts::9                 0                       # Per bank write bursts
system.mem_ctrls.perBankWrBursts::10               23                       # Per bank write bursts
system.mem_ctrls.perBankWrBursts::11                0                       # Per bank write bursts
system.mem_ctrls.perBankWrBursts::12                0                       # Per bank write bursts
system.mem_ctrls.perBankWrBursts::13                0                       # Per bank write bursts
system.mem_ctrls.perBankWrBursts::14               40                       # Per bank write bursts
system.mem_ctrls.perBankWrBursts::15              123                       # Per bank write bursts
system.mem_ctrls.numRdRetry                         0                       # Number of times read queue was full causing retry
system.mem_ctrls.numWrRetry                         0                       # Number of times write queue was full causing retry
system.mem_ctrls.totGap                   15267290000                       # Total gap between requests
system.mem_ctrls.readPktSize::0                     0                       # Read request sizes (log2)
system.mem_ctrls.readPktSize::1                     0                       # Read request sizes (log2)
system.mem_ctrls.readPktSize::2                     0                       # Read request sizes (log2)
system.mem_ctrls.readPktSize::3                     0                       # Read request sizes (log2)
system.mem_ctrls.readPktSize::4                     0                       # Read request sizes (log2)
system.mem_ctrls.readPktSize::5                     0                       # Read request sizes (log2)
system.mem_ctrls.readPktSize::6                185350                       # Read request sizes (log2)
system.mem_ctrls.writePktSize::0                    0                       # Write request sizes (log2)
system.mem_ctrls.writePktSize::1                    0                       # Write request sizes (log2)
system.mem_ctrls.writePktSize::2                    0                       # Write request sizes (log2)
system.mem_ctrls.writePktSize::3                    0                       # Write request sizes (log2)
system.mem_ctrls.writePktSize::4                    0                       # Write request sizes (log2)
system.mem_ctrls.writePktSize::5                    0                       # Write request sizes (log2)
system.mem_ctrls.writePktSize::6                  351                       # Write request sizes (log2)
system.mem_ctrls.rdQLenPdf::0                  141412                       # What read queue length does an incoming req see
system.mem_ctrls.rdQLenPdf::1                   41065                       # What read queue length does an incoming req see
system.mem_ctrls.rdQLenPdf::2                    2782                       # What read queue length does an incoming req see
system.mem_ctrls.rdQLenPdf::3                      54                       # What read queue length does an incoming req see
system.mem_ctrls.rdQLenPdf::4                       0                       # What read queue length does an incoming req see
system.mem_ctrls.rdQLenPdf::5                       0                       # What read queue length does an incoming req see
system.mem_ctrls.rdQLenPdf::6                       0                       # What read queue length does an incoming req see
system.mem_ctrls.rdQLenPdf::7                       0                       # What read queue length does an incoming req see
system.mem_ctrls.rdQLenPdf::8                       0                       # What read queue length does an incoming req see
system.mem_ctrls.rdQLenPdf::9                       0                       # What read queue length does an incoming req see
system.mem_ctrls.rdQLenPdf::10                      0                       # What read queue length does an incoming req see
system.mem_ctrls.rdQLenPdf::11                      0                       # What read queue length does an incoming req see
system.mem_ctrls.rdQLenPdf::12                      0                       # What read queue length does an incoming req see
system.mem_ctrls.rdQLenPdf::13                      0                       # What read queue length does an incoming req see
system.mem_ctrls.rdQLenPdf::14                      0                       # What read queue length does an incoming req see
system.mem_ctrls.rdQLenPdf::15                      0                       # What read queue length does an incoming req see
system.mem_ctrls.rdQLenPdf::16                      0                       # What read queue length does an incoming req see
system.mem_ctrls.rdQLenPdf::17                      0                       # What read queue length does an incoming req see
system.mem_ctrls.rdQLenPdf::18                      0                       # What read queue length does an incoming req see
system.mem_ctrls.rdQLenPdf::19                      0                       # What read queue length does an incoming req see
system.mem_ctrls.rdQLenPdf::20                      0                       # What read queue length does an incoming req see
system.mem_ctrls.rdQLenPdf::21                      0                       # What read queue length does an incoming req see
system.mem_ctrls.rdQLenPdf::22                      0                       # What read queue length does an incoming req see
system.mem_ctrls.rdQLenPdf::23                      0                       # What read queue length does an incoming req see
system.mem_ctrls.rdQLenPdf::24                      0                       # What read queue length does an incoming req see
system.mem_ctrls.rdQLenPdf::25                      0                       # What read queue length does an incoming req see
system.mem_ctrls.rdQLenPdf::26                      0                       # What read queue length does an incoming req see
system.mem_ctrls.rdQLenPdf::27                      0                       # What read queue length does an incoming req see
system.mem_ctrls.rdQLenPdf::28                      0                       # What read queue length does an incoming req see
system.mem_ctrls.rdQLenPdf::29                      0                       # What read queue length does an incoming req see
system.mem_ctrls.rdQLenPdf::30                      0                       # What read queue length does an incoming req see
system.mem_ctrls.rdQLenPdf::31                      0                       # What read queue length does an incoming req see
system.mem_ctrls.wrQLenPdf::0                       0                       # What write queue length does an incoming req see
system.mem_ctrls.wrQLenPdf::1                       0                       # What write queue length does an incoming req see
system.mem_ctrls.wrQLenPdf::2                       0                       # What write queue length does an incoming req see
system.mem_ctrls.wrQLenPdf::3                       0                       # What write queue length does an incoming req see
system.mem_ctrls.wrQLenPdf::4                       0                       # What write queue length does an incoming req see
system.mem_ctrls.wrQLenPdf::5                       0                       # What write queue length does an incoming req see
system.mem_ctrls.wrQLenPdf::6                       0                       # What write queue length does an incoming req see
system.mem_ctrls.wrQLenPdf::7                       0                       # What write queue length does an incoming req see
system.mem_ctrls.wrQLenPdf::8                       0                       # What write queue length does an incoming req see
system.mem_ctrls.wrQLenPdf::9                       0                       # What write queue length does an incoming req see
system.mem_ctrls.wrQLenPdf::10                      0                       # What write queue length does an incoming req see
system.mem_ctrls.wrQLenPdf::11                      0                       # What write queue length does an incoming req see
system.mem_ctrls.wrQLenPdf::12                      0                       # What write queue length does an incoming req see
system.mem_ctrls.wrQLenPdf::13                      0                       # What write queue length does an incoming req see
system.mem_ctrls.wrQLenPdf::14                      0                       # What write queue length does an incoming req see
system.mem_ctrls.wrQLenPdf::15                      1                       # What write queue length does an incoming req see
system.mem_ctrls.wrQLenPdf::16                      1                       # What write queue length does an incoming req see
system.mem_ctrls.wrQLenPdf::17                     22                       # What write queue length does an incoming req see
system.mem_ctrls.wrQLenPdf::18                     22                       # What write queue length does an incoming req see
system.mem_ctrls.wrQLenPdf::19                     22                       # What write queue length does an incoming req see
system.mem_ctrls.wrQLenPdf::20                     22                       # What write queue length does an incoming req see
system.mem_ctrls.wrQLenPdf::21                     22                       # What write queue length does an incoming req see
system.mem_ctrls.wrQLenPdf::22                     22                       # What write queue length does an incoming req see
system.mem_ctrls.wrQLenPdf::23                     22                       # What write queue length does an incoming req see
system.mem_ctrls.wrQLenPdf::24                     22                       # What write queue length does an incoming req see
system.mem_ctrls.wrQLenPdf::25                     22                       # What write queue length does an incoming req see
system.mem_ctrls.wrQLenPdf::26                     22                       # What write queue length does an incoming req see
system.mem_ctrls.wrQLenPdf::27                     22                       # What write queue length does an incoming req see
system.mem_ctrls.wrQLenPdf::28                     22                       # What write queue length does an incoming req see
system.mem_ctrls.wrQLenPdf::29                     21                       # What write queue length does an incoming req see
system.mem_ctrls.wrQLenPdf::30                     21                       # What write queue length does an incoming req see
system.mem_ctrls.wrQLenPdf::31                     21                       # What write queue length does an incoming req see
system.mem_ctrls.wrQLenPdf::32                     22                       # What write queue length does an incoming req see
system.mem_ctrls.wrQLenPdf::33                      0                       # What write queue length does an incoming req see
system.mem_ctrls.wrQLenPdf::34                      0                       # What write queue length does an incoming req see
system.mem_ctrls.wrQLenPdf::35                      0                       # What write queue length does an incoming req see
system.mem_ctrls.wrQLenPdf::36                      0                       # What write queue length does an incoming req see
system.mem_ctrls.wrQLenPdf::37                      0                       # What write queue length does an incoming req see
system.mem_ctrls.wrQLenPdf::38                      0                       # What write queue length does an incoming req see
system.mem_ctrls.wrQLenPdf::39                      0                       # What write queue length does an incoming req see
system.mem_ctrls.wrQLenPdf::40                      0                       # What write queue length does an incoming req see
system.mem_ctrls.wrQLenPdf::41                      0                       # What write queue length does an incoming req see
system.mem_ctrls.wrQLenPdf::42                      0                       # What write queue length does an incoming req see
system.mem_ctrls.wrQLenPdf::43                      0                       # What write queue length does an incoming req see
system.mem_ctrls.wrQLenPdf::44                      0                       # What write queue length does an incoming req see
system.mem_ctrls.wrQLenPdf::45                      0                       # What write queue length does an incoming req see
system.mem_ctrls.wrQLenPdf::46                      0                       # What write queue length does an incoming req see
system.mem_ctrls.wrQLenPdf::47                      0                       # What write queue length does an incoming req see
system.mem_ctrls.wrQLenPdf::48                      0                       # What write queue length does an incoming req see
system.mem_ctrls.wrQLenPdf::49                      0                       # What write queue length does an incoming req see
system.mem_ctrls.wrQLenPdf::50                      0                       # What write queue length does an incoming req see
system.mem_ctrls.wrQLenPdf::51                      0                       # What write queue length does an incoming req see
system.mem_ctrls.wrQLenPdf::52                      0                       # What write queue length does an incoming req see
system.mem_ctrls.wrQLenPdf::53                      0                       # What write queue length does an incoming req see
system.mem_ctrls.wrQLenPdf::54                      0                       # What write queue length does an incoming req see
system.mem_ctrls.wrQLenPdf::55                      0                       # What write queue length does an incoming req see
system.mem_ctrls.wrQLenPdf::56                      0                       # What write queue length does an incoming req see
system.mem_ctrls.wrQLenPdf::57                      0                       # What write queue length does an incoming req see
system.mem_ctrls.wrQLenPdf::58                      0                       # What write queue length does an incoming req see
system.mem_ctrls.wrQLenPdf::59                      0                       # What write queue length does an incoming req see
system.mem_ctrls.wrQLenPdf::60                      0                       # What write queue length does an incoming req see
system.mem_ctrls.wrQLenPdf::61                      0                       # What write queue length does an incoming req see
system.mem_ctrls.wrQLenPdf::62                      0                       # What write queue length does an incoming req see
system.mem_ctrls.wrQLenPdf::63                      0                       # What write queue length does an incoming req see
system.mem_ctrls.bytesPerActivate::samples        96296                       # Bytes accessed per row activation
system.mem_ctrls.bytesPerActivate::mean    123.399518                       # Bytes accessed per row activation
system.mem_ctrls.bytesPerActivate::gmean   106.364975                       # Bytes accessed per row activation
system.mem_ctrls.bytesPerActivate::stdev    73.969037                       # Bytes accessed per row activation
system.mem_ctrls.bytesPerActivate::0-127        44581     46.30%     46.30% # Bytes accessed per row activation
system.mem_ctrls.bytesPerActivate::128-255        42168     43.79%     90.09% # Bytes accessed per row activation
system.mem_ctrls.bytesPerActivate::256-383         8366      8.69%     98.77% # Bytes accessed per row activation
system.mem_ctrls.bytesPerActivate::384-511         1043      1.08%     99.86% # Bytes accessed per row activation
system.mem_ctrls.bytesPerActivate::512-639          110      0.11%     99.97% # Bytes accessed per row activation
system.mem_ctrls.bytesPerActivate::640-767           16      0.02%     99.99% # Bytes accessed per row activation
system.mem_ctrls.bytesPerActivate::768-895            3      0.00%     99.99% # Bytes accessed per row activation
system.mem_ctrls.bytesPerActivate::896-1023            2      0.00%     99.99% # Bytes accessed per row activation
system.mem_ctrls.bytesPerActivate::1024-1151            7      0.01%    100.00% # Bytes accessed per row activation
system.mem_ctrls.bytesPerActivate::total        96296                       # Bytes accessed per row activation
system.mem_ctrls.rdPerTurnAround::samples           22                       # Reads before turning the bus around for writes
system.mem_ctrls.rdPerTurnAround::mean    8423.727273                       # Reads before turning the bus around for writes
system.mem_ctrls.rdPerTurnAround::gmean   8224.765924                       # Reads before turning the bus around for writes
system.mem_ctrls.rdPerTurnAround::stdev   1857.363010                       # Reads before turning the bus around for writes
system.mem_ctrls.rdPerTurnAround::4608-5119            1      4.55%      4.55% # Reads before turning the bus around for writes
system.mem_ctrls.rdPerTurnAround::5632-6143            2      9.09%     13.64% # Reads before turning the bus around for writes
system.mem_ctrls.rdPerTurnAround::6144-6655            2      9.09%     22.73% # Reads before turning the bus around for writes
system.mem_ctrls.rdPerTurnAround::7168-7679            3     13.64%     36.36% # Reads before turning the bus around for writes
system.mem_ctrls.rdPerTurnAround::8192-8703            3     13.64%     50.00% # Reads before turning the bus around for writes
system.mem_ctrls.rdPerTurnAround::8704-9215            5     22.73%     72.73% # Reads before turning the bus around for writes
system.mem_ctrls.rdPerTurnAround::9216-9727            2      9.09%     81.82% # Reads before turning the bus around for writes
system.mem_ctrls.rdPerTurnAround::9728-10239            1      4.55%     86.36% # Reads before turning the bus around for writes
system.mem_ctrls.rdPerTurnAround::10240-10751            2      9.09%     95.45% # Reads before turning the bus around for writes
system.mem_ctrls.rdPerTurnAround::12800-13311            1      4.55%    100.00% # Reads before turning the bus around for writes
system.mem_ctrls.rdPerTurnAround::total            22                       # Reads before turning the bus around for writes
system.mem_ctrls.wrPerTurnAround::samples           22                       # Writes before turning the bus around for reads
system.mem_ctrls.wrPerTurnAround::mean      16.090909                       # Writes before turning the bus around for reads
system.mem_ctrls.wrPerTurnAround::gmean     16.085890                       # Writes before turning the bus around for reads
system.mem_ctrls.wrPerTurnAround::stdev      0.426401                       # Writes before turning the bus around for reads
system.mem_ctrls.wrPerTurnAround::16               21     95.45%     95.45% # Writes before turning the bus around for reads
system.mem_ctrls.wrPerTurnAround::18                1      4.55%    100.00% # Writes before turning the bus around for reads
system.mem_ctrls.wrPerTurnAround::total            22                       # Writes before turning the bus around for reads
system.mem_ctrls.totQLat                   4579489500                       # Total ticks spent queuing
system.mem_ctrls.totMemAccLat              8054108250                       # Total ticks spent from burst creation until serviced by the DRAM
system.mem_ctrls.totBusLat                  926565000                       # Total ticks spent in databus transfers
system.mem_ctrls.avgQLat                     24712.19                       # Average queueing delay per DRAM burst
system.mem_ctrls.avgBusLat                    5000.00                       # Average bus latency per DRAM burst
system.mem_ctrls.avgMemAccLat                43462.19                       # Average memory access latency per DRAM burst
system.mem_ctrls.avgRdBW                       776.82                       # Average DRAM read bandwidth in MiByte/s
system.mem_ctrls.avgWrBW                         1.48                       # Average achieved write bandwidth in MiByte/s
system.mem_ctrls.avgRdBWSys                    776.98                       # Average system read bandwidth in MiByte/s
system.mem_ctrls.avgWrBWSys                      1.47                       # Average system write bandwidth in MiByte/s
system.mem_ctrls.peakBW                      12800.00                       # Theoretical peak bandwidth in MiByte/s
system.mem_ctrls.busUtil                         6.08                       # Data bus utilization in percentage
system.mem_ctrls.busUtilRead                     6.07                       # Data bus utilization in percentage for reads
system.mem_ctrls.busUtilWrite                    0.01                       # Data bus utilization in percentage for writes
system.mem_ctrls.avgRdQLen                       1.30                       # Average read queue length when enqueuing
system.mem_ctrls.avgWrQLen                      25.75                       # Average write queue length when enqueuing
system.mem_ctrls.readRowHits                    89071                       # Number of row buffer hits during reads
system.mem_ctrls.writeRowHits                     299                       # Number of row buffer hits during writes
system.mem_ctrls.readRowHitRate                 48.07                       # Row buffer hit rate for reads
system.mem_ctrls.writeRowHitRate                85.19                       # Row buffer hit rate for writes
system.mem_ctrls.avgGap                      82214.37                       # Average gap between requests
system.mem_ctrls.pageHitRate                    48.14                       # Row buffer hit rate, read and write combined
system.mem_ctrls_0.actEnergy                344819160                       # Energy for activate commands per rank (pJ)
system.mem_ctrls_0.preEnergy                183271935                       # Energy for precharge commands per rank (pJ)
system.mem_ctrls_0.readEnergy               663912900                       # Energy for read commands per rank (pJ)
system.mem_ctrls_0.writeEnergy                 876960                       # Energy for write commands per rank (pJ)
system.mem_ctrls_0.refreshEnergy         1205309040.000000                       # Energy for refresh commands per rank (pJ)
system.mem_ctrls_0.actBackEnergy           1587328590                       # Energy for active background per rank (pJ)
system.mem_ctrls_0.preBackEnergy             24632640                       # Energy for precharge background per rank (pJ)
system.mem_ctrls_0.actPowerDownEnergy      5153932020                       # Energy for active power-down per rank (pJ)
system.mem_ctrls_0.prePowerDownEnergy       158928000                       # Energy for precharge power-down per rank (pJ)
system.mem_ctrls_0.selfRefreshEnergy          1957740                       # Energy for self refresh per rank (pJ)
system.mem_ctrls_0.totalEnergy             9324968985                       # Total energy per rank (pJ)
system.mem_ctrls_0.averagePower            610.778725                       # Core power per rank (mW)
system.mem_ctrls_0.totalIdleTime          11722176250                       # Total Idle time Per DRAM Rank
system.mem_ctrls_0.memoryStateTime::IDLE      9894000                       # Time in different power states
system.mem_ctrls_0.memoryStateTime::REF     509872000                       # Time in different power states
system.mem_ctrls_0.memoryStateTime::SREF      5856750                       # Time in different power states
system.mem_ctrls_0.memoryStateTime::PRE_PDN    413741500                       # Time in different power states
system.mem_ctrls_0.memoryStateTime::ACT    3025040500                       # Time in different power states
system.mem_ctrls_0.memoryStateTime::ACT_PDN  11302939375                       # Time in different power states
system.mem_ctrls_1.actEnergy                342741420                       # Energy for activate commands per rank (pJ)
system.mem_ctrls_1.preEnergy                182171385                       # Energy for precharge commands per rank (pJ)
system.mem_ctrls_1.readEnergy               659229060                       # Energy for read commands per rank (pJ)
system.mem_ctrls_1.writeEnergy                 970920                       # Energy for write commands per rank (pJ)
system.mem_ctrls_1.refreshEnergy         1205923680.000000                       # Energy for refresh commands per rank (pJ)
system.mem_ctrls_1.actBackEnergy           1576855980                       # Energy for active background per rank (pJ)
system.mem_ctrls_1.preBackEnergy             24622560                       # Energy for precharge background per rank (pJ)
system.mem_ctrls_1.actPowerDownEnergy      5167540770                       # Energy for active power-down per rank (pJ)
system.mem_ctrls_1.prePowerDownEnergy       154076640                       # Energy for precharge power-down per rank (pJ)
system.mem_ctrls_1.selfRefreshEnergy          4450020                       # Energy for self refresh per rank (pJ)
system.mem_ctrls_1.totalEnergy             9318582435                       # Total energy per rank (pJ)
system.mem_ctrls_1.averagePower            610.360411                       # Core power per rank (mW)
system.mem_ctrls_1.totalIdleTime          11745048750                       # Total Idle time Per DRAM Rank
system.mem_ctrls_1.memoryStateTime::IDLE     10242000                       # Time in different power states
system.mem_ctrls_1.memoryStateTime::REF     510138000                       # Time in different power states
system.mem_ctrls_1.memoryStateTime::SREF     11640250                       # Time in different power states
system.mem_ctrls_1.memoryStateTime::PRE_PDN    401209000                       # Time in different power states
system.mem_ctrls_1.memoryStateTime::ACT    3001878000                       # Time in different power states
system.mem_ctrls_1.memoryStateTime::ACT_PDN  11332236875                       # Time in different power states
system.pwrStateResidencyTicks::UNDEFINED  15267344125                       # Cumulative time (in ticks) in various power states
system.cpu0.branchPred.lookups                1727213                       # Number of BP lookups
system.cpu0.branchPred.condPredicted          1727213                       # Number of conditional branches predicted
system.cpu0.branchPred.condIncorrect            60763                       # Number of conditional branches incorrect
system.cpu0.branchPred.BTBLookups             1203251                       # Number of BTB lookups
system.cpu0.branchPred.BTBHits                      0                       # Number of BTB hits
system.cpu0.branchPred.BTBCorrect                   0                       # Number of correct BTB predictions (this stat may not work properly.
system.cpu0.branchPred.BTBHitPct             0.000000                       # BTB Hit Percentage
system.cpu0.branchPred.usedRAS                  32127                       # Number of times the RAS was used to get a target.
system.cpu0.branchPred.RASInCorrect              4848                       # Number of incorrect RAS predictions.
system.cpu0.branchPred.indirectLookups        1203251                       # Number of indirect predictor lookups.
system.cpu0.branchPred.indirectHits            772114                       # Number of indirect target hits.
system.cpu0.branchPred.indirectMisses          431137                       # Number of indirect misses.
system.cpu0.branchPredindirectMispredicted        16093                       # Number of mispredicted indirect branches.
system.cpu_voltage_domain.voltage                   1                       # Voltage in Volts
system.cpu_clk_domain.clock                       500                       # Clock period in ticks
system.cpu0.dtb.walker.pwrStateResidencyTicks::UNDEFINED  15267344125                       # Cumulative time (in ticks) in various power states
system.cpu0.dtb.rdAccesses                     790983                       # TLB accesses on read requests
system.cpu0.dtb.wrAccesses                      40629                       # TLB accesses on write requests
system.cpu0.dtb.rdMisses                       177747                       # TLB misses on read requests
system.cpu0.dtb.wrMisses                          817                       # TLB misses on write requests
system.cpu0.apic_clk_domain.clock                8000                       # Clock period in ticks
system.cpu0.interrupts.pwrStateResidencyTicks::UNDEFINED  15267344125                       # Cumulative time (in ticks) in various power states
system.cpu0.itb.walker.pwrStateResidencyTicks::UNDEFINED  15267344125                       # Cumulative time (in ticks) in various power states
system.cpu0.itb.rdAccesses                          0                       # TLB accesses on read requests
system.cpu0.itb.wrAccesses                    1516095                       # TLB accesses on write requests
system.cpu0.itb.rdMisses                            0                       # TLB misses on read requests
system.cpu0.itb.wrMisses                         2180                       # TLB misses on write requests
system.cpu0.workload.numSyscalls                    0                       # Number of system calls
system.cpu0.pwrStateResidencyTicks::ON    15267344125                       # Cumulative time (in ticks) in various power states
system.cpu0.numCycles                        30534688                       # number of cpu cycles simulated
system.cpu0.numWorkItemsStarted                     0                       # number of work items this cpu started
system.cpu0.numWorkItemsCompleted                   0                       # number of work items this cpu completed
system.cpu0.fetch.icacheStallCycles           1542398                       # Number of cycles fetch is stalled on an Icache miss
system.cpu0.fetch.Insts                       4840011                       # Number of instructions fetch has processed
system.cpu0.fetch.Branches                    1727213                       # Number of branches that fetch encountered
system.cpu0.fetch.predictedBranches            804241                       # Number of branches that fetch has predicted taken
system.cpu0.fetch.Cycles                     28896636                       # Number of cycles fetch has run and was not squashing or blocked
system.cpu0.fetch.SquashCycles                 122924                       # Number of cycles fetch has spent squashing
system.cpu0.fetch.TlbCycles                       335                       # Number of cycles fetch has spent waiting for tlb
system.cpu0.fetch.MiscStallCycles                 500                       # Number of cycles fetch has spent waiting on interrupts, or bad addresses, or out of MSHRs
system.cpu0.fetch.PendingTrapStallCycles        18154                       # Number of stall cycles due to pending traps
system.cpu0.fetch.PendingQuiesceStallCycles            2                       # Number of stall cycles due to pending quiesce instructions
system.cpu0.fetch.CacheLines                  1513915                       # Number of cache lines fetched
system.cpu0.fetch.IcacheSquashes                 7065                       # Number of outstanding Icache misses that were squashed
system.cpu0.fetch.ItlbSquashes                      3                       # Number of outstanding ITLB misses that were squashed
system.cpu0.fetch.rateDist::samples          30519487                       # Number of instructions fetched each cycle (Total)
system.cpu0.fetch.rateDist::mean             0.317667                       # Number of instructions fetched each cycle (Total)
system.cpu0.fetch.rateDist::stdev            1.411000                       # Number of instructions fetched each cycle (Total)
system.cpu0.fetch.rateDist::underflows              0      0.00%      0.00% # Number of instructions fetched each cycle (Total)
system.cpu0.fetch.rateDist::0                28585872     93.66%     93.66% # Number of instructions fetched each cycle (Total)
system.cpu0.fetch.rateDist::1                   22156      0.07%     93.74% # Number of instructions fetched each cycle (Total)
system.cpu0.fetch.rateDist::2                  778108      2.55%     96.29% # Number of instructions fetched each cycle (Total)
system.cpu0.fetch.rateDist::3                   19046      0.06%     96.35% # Number of instructions fetched each cycle (Total)
system.cpu0.fetch.rateDist::4                  135441      0.44%     96.79% # Number of instructions fetched each cycle (Total)
system.cpu0.fetch.rateDist::5                   40651      0.13%     96.93% # Number of instructions fetched each cycle (Total)
system.cpu0.fetch.rateDist::6                   87250      0.29%     97.21% # Number of instructions fetched each cycle (Total)
system.cpu0.fetch.rateDist::7                   16687      0.05%     97.27% # Number of instructions fetched each cycle (Total)
system.cpu0.fetch.rateDist::8                  834276      2.73%    100.00% # Number of instructions fetched each cycle (Total)
system.cpu0.fetch.rateDist::overflows               0      0.00%    100.00% # Number of instructions fetched each cycle (Total)
system.cpu0.fetch.rateDist::min_value               0                       # Number of instructions fetched each cycle (Total)
system.cpu0.fetch.rateDist::max_value               8                       # Number of instructions fetched each cycle (Total)
system.cpu0.fetch.rateDist::total            30519487                       # Number of instructions fetched each cycle (Total)
system.cpu0.fetch.branchRate                 0.056566                       # Number of branch fetches per cycle
system.cpu0.fetch.rate                       0.158509                       # Number of inst fetches per cycle
system.cpu0.decode.IdleCycles                  731991                       # Number of cycles decode is idle
system.cpu0.decode.BlockedCycles             28468747                       # Number of cycles decode is blocked
system.cpu0.decode.RunCycles                   911946                       # Number of cycles decode is running
system.cpu0.decode.UnblockCycles               345341                       # Number of cycles decode is unblocking
system.cpu0.decode.SquashCycles                 61462                       # Number of cycles decode is squashing
system.cpu0.decode.DecodedInsts               8056201                       # Number of instructions handled by decode
system.cpu0.rename.SquashCycles                 61462                       # Number of cycles rename is squashing
system.cpu0.rename.IdleCycles                  830809                       # Number of cycles rename is idle
system.cpu0.rename.BlockCycles               27179335                       # Number of cycles rename is blocking
system.cpu0.rename.serializeStallCycles          7710                       # count of cycles rename stalled for serializing inst
system.cpu0.rename.RunCycles                  1074621                       # Number of cycles rename is running
system.cpu0.rename.UnblockCycles              1365550                       # Number of cycles rename is unblocking
system.cpu0.rename.RenamedInsts               7773029                       # Number of instructions processed by rename
system.cpu0.rename.ROBFullEvents                38024                       # Number of times rename has blocked due to ROB full
system.cpu0.rename.IQFullEvents               1167231                       # Number of times rename has blocked due to IQ full
system.cpu0.rename.LQFullEvents                147500                       # Number of times rename has blocked due to LQ full
system.cpu0.rename.SQFullEvents                  2210                       # Number of times rename has blocked due to SQ full
system.cpu0.rename.RenamedOperands            9298871                       # Number of destination operands rename has renamed
system.cpu0.rename.RenameLookups             21891987                       # Number of register rename lookups that rename has made
system.cpu0.rename.int_rename_lookups        10012774                       # Number of integer rename lookups
system.cpu0.rename.fp_rename_lookups            36311                       # Number of floating rename lookups
system.cpu0.rename.CommittedMaps              3589222                       # Number of HB maps that are committed
system.cpu0.rename.UndoneMaps                 5709615                       # Number of HB maps that are undone due to squashing
system.cpu0.rename.serializingInsts               284                       # count of serializing insts renamed
system.cpu0.rename.tempSerializingInsts           322                       # count of temporary serializing insts renamed
system.cpu0.rename.skidInsts                  2197564                       # count of insts added to the skid buffer
system.cpu0.memDep0.insertedLoads             1441599                       # Number of loads inserted to the mem dependence unit.
system.cpu0.memDep0.insertedStores              57215                       # Number of stores inserted to the mem dependence unit.
system.cpu0.memDep0.conflictingLoads             4259                       # Number of conflicting loads.
system.cpu0.memDep0.conflictingStores            3775                       # Number of conflicting stores.
system.cpu0.iq.iqInstsAdded                   7448865                       # Number of instructions added to the IQ (excludes non-spec)
system.cpu0.iq.iqNonSpecInstsAdded               3489                       # Number of non-speculative instructions added to the IQ
system.cpu0.iq.iqInstsIssued                  5275775                       # Number of instructions issued
system.cpu0.iq.iqSquashedInstsIssued             4630                       # Number of squashed instructions issued
system.cpu0.iq.iqSquashedInstsExamined        4458790                       # Number of squashed instructions iterated over during squash; mainly for profiling
system.cpu0.iq.iqSquashedOperandsExamined     10032083                       # Number of squashed operands that are examined and possibly removed from graph
system.cpu0.iq.iqSquashedNonSpecRemoved          3489                       # Number of squashed non-spec instructions that were removed
system.cpu0.iq.issued_per_cycle::samples     30519487                       # Number of insts issued each cycle
system.cpu0.iq.issued_per_cycle::mean        0.172866                       # Number of insts issued each cycle
system.cpu0.iq.issued_per_cycle::stdev       0.746662                       # Number of insts issued each cycle
system.cpu0.iq.issued_per_cycle::underflows            0      0.00%      0.00% # Number of insts issued each cycle
system.cpu0.iq.issued_per_cycle::0           28308856     92.76%     92.76% # Number of insts issued each cycle
system.cpu0.iq.issued_per_cycle::1             890620      2.92%     95.67% # Number of insts issued each cycle
system.cpu0.iq.issued_per_cycle::2             472484      1.55%     97.22% # Number of insts issued each cycle
system.cpu0.iq.issued_per_cycle::3             316449      1.04%     98.26% # Number of insts issued each cycle
system.cpu0.iq.issued_per_cycle::4             335498      1.10%     99.36% # Number of insts issued each cycle
system.cpu0.iq.issued_per_cycle::5              85560      0.28%     99.64% # Number of insts issued each cycle
system.cpu0.iq.issued_per_cycle::6              68299      0.22%     99.86% # Number of insts issued each cycle
system.cpu0.iq.issued_per_cycle::7              22514      0.07%     99.94% # Number of insts issued each cycle
system.cpu0.iq.issued_per_cycle::8              19207      0.06%    100.00% # Number of insts issued each cycle
system.cpu0.iq.issued_per_cycle::overflows            0      0.00%    100.00% # Number of insts issued each cycle
system.cpu0.iq.issued_per_cycle::min_value            0                       # Number of insts issued each cycle
system.cpu0.iq.issued_per_cycle::max_value            8                       # Number of insts issued each cycle
system.cpu0.iq.issued_per_cycle::total       30519487                       # Number of insts issued each cycle
system.cpu0.iq.fu_full::No_OpClass                  0      0.00%      0.00% # attempts to use FU when none available
system.cpu0.iq.fu_full::IntAlu                   9833     72.37%     72.37% # attempts to use FU when none available
system.cpu0.iq.fu_full::IntMult                     0      0.00%     72.37% # attempts to use FU when none available
system.cpu0.iq.fu_full::IntDiv                      0      0.00%     72.37% # attempts to use FU when none available
system.cpu0.iq.fu_full::FloatAdd                 1059      7.79%     80.16% # attempts to use FU when none available
system.cpu0.iq.fu_full::FloatCmp                    0      0.00%     80.16% # attempts to use FU when none available
system.cpu0.iq.fu_full::FloatCvt                    0      0.00%     80.16% # attempts to use FU when none available
system.cpu0.iq.fu_full::FloatMult                   0      0.00%     80.16% # attempts to use FU when none available
system.cpu0.iq.fu_full::FloatMultAcc                0      0.00%     80.16% # attempts to use FU when none available
system.cpu0.iq.fu_full::FloatDiv                    0      0.00%     80.16% # attempts to use FU when none available
system.cpu0.iq.fu_full::FloatMisc                   0      0.00%     80.16% # attempts to use FU when none available
system.cpu0.iq.fu_full::FloatSqrt                   0      0.00%     80.16% # attempts to use FU when none available
system.cpu0.iq.fu_full::SimdAdd                     0      0.00%     80.16% # attempts to use FU when none available
system.cpu0.iq.fu_full::SimdAddAcc                  0      0.00%     80.16% # attempts to use FU when none available
system.cpu0.iq.fu_full::SimdAlu                     0      0.00%     80.16% # attempts to use FU when none available
system.cpu0.iq.fu_full::SimdCmp                     0      0.00%     80.16% # attempts to use FU when none available
system.cpu0.iq.fu_full::SimdCvt                     0      0.00%     80.16% # attempts to use FU when none available
system.cpu0.iq.fu_full::SimdMisc                    0      0.00%     80.16% # attempts to use FU when none available
system.cpu0.iq.fu_full::SimdMult                    0      0.00%     80.16% # attempts to use FU when none available
system.cpu0.iq.fu_full::SimdMultAcc                 0      0.00%     80.16% # attempts to use FU when none available
system.cpu0.iq.fu_full::SimdShift                   0      0.00%     80.16% # attempts to use FU when none available
system.cpu0.iq.fu_full::SimdShiftAcc                0      0.00%     80.16% # attempts to use FU when none available
system.cpu0.iq.fu_full::SimdSqrt                    0      0.00%     80.16% # attempts to use FU when none available
system.cpu0.iq.fu_full::SimdFloatAdd                0      0.00%     80.16% # attempts to use FU when none available
system.cpu0.iq.fu_full::SimdFloatAlu                0      0.00%     80.16% # attempts to use FU when none available
system.cpu0.iq.fu_full::SimdFloatCmp                0      0.00%     80.16% # attempts to use FU when none available
system.cpu0.iq.fu_full::SimdFloatCvt                0      0.00%     80.16% # attempts to use FU when none available
system.cpu0.iq.fu_full::SimdFloatDiv                0      0.00%     80.16% # attempts to use FU when none available
system.cpu0.iq.fu_full::SimdFloatMisc               0      0.00%     80.16% # attempts to use FU when none available
system.cpu0.iq.fu_full::SimdFloatMult               0      0.00%     80.16% # attempts to use FU when none available
system.cpu0.iq.fu_full::SimdFloatMultAcc            0      0.00%     80.16% # attempts to use FU when none available
system.cpu0.iq.fu_full::SimdFloatSqrt               0      0.00%     80.16% # attempts to use FU when none available
system.cpu0.iq.fu_full::MemRead                  2300     16.93%     97.09% # attempts to use FU when none available
system.cpu0.iq.fu_full::MemWrite                  216      1.59%     98.68% # attempts to use FU when none available
system.cpu0.iq.fu_full::FloatMemRead               85      0.63%     99.31% # attempts to use FU when none available
system.cpu0.iq.fu_full::FloatMemWrite              94      0.69%    100.00% # attempts to use FU when none available
system.cpu0.iq.fu_full::IprAccess                   0      0.00%    100.00% # attempts to use FU when none available
system.cpu0.iq.fu_full::InstPrefetch                0      0.00%    100.00% # attempts to use FU when none available
system.cpu0.iq.FU_type_0::No_OpClass            12132      0.23%      0.23% # Type of FU issued
system.cpu0.iq.FU_type_0::IntAlu              4375846     82.94%     83.17% # Type of FU issued
system.cpu0.iq.FU_type_0::IntMult                 591      0.01%     83.18% # Type of FU issued
system.cpu0.iq.FU_type_0::IntDiv                 9252      0.18%     83.36% # Type of FU issued
system.cpu0.iq.FU_type_0::FloatAdd              13214      0.25%     83.61% # Type of FU issued
system.cpu0.iq.FU_type_0::FloatCmp                  0      0.00%     83.61% # Type of FU issued
system.cpu0.iq.FU_type_0::FloatCvt                  0      0.00%     83.61% # Type of FU issued
system.cpu0.iq.FU_type_0::FloatMult                 0      0.00%     83.61% # Type of FU issued
system.cpu0.iq.FU_type_0::FloatMultAcc              0      0.00%     83.61% # Type of FU issued
system.cpu0.iq.FU_type_0::FloatDiv                  0      0.00%     83.61% # Type of FU issued
system.cpu0.iq.FU_type_0::FloatMisc                 0      0.00%     83.61% # Type of FU issued
system.cpu0.iq.FU_type_0::FloatSqrt                 0      0.00%     83.61% # Type of FU issued
system.cpu0.iq.FU_type_0::SimdAdd                   0      0.00%     83.61% # Type of FU issued
system.cpu0.iq.FU_type_0::SimdAddAcc                0      0.00%     83.61% # Type of FU issued
system.cpu0.iq.FU_type_0::SimdAlu                   0      0.00%     83.61% # Type of FU issued
system.cpu0.iq.FU_type_0::SimdCmp                   0      0.00%     83.61% # Type of FU issued
system.cpu0.iq.FU_type_0::SimdCvt                   0      0.00%     83.61% # Type of FU issued
system.cpu0.iq.FU_type_0::SimdMisc                  0      0.00%     83.61% # Type of FU issued
system.cpu0.iq.FU_type_0::SimdMult                  0      0.00%     83.61% # Type of FU issued
system.cpu0.iq.FU_type_0::SimdMultAcc               0      0.00%     83.61% # Type of FU issued
system.cpu0.iq.FU_type_0::SimdShift                 0      0.00%     83.61% # Type of FU issued
system.cpu0.iq.FU_type_0::SimdShiftAcc              0      0.00%     83.61% # Type of FU issued
system.cpu0.iq.FU_type_0::SimdSqrt                  0      0.00%     83.61% # Type of FU issued
system.cpu0.iq.FU_type_0::SimdFloatAdd              0      0.00%     83.61% # Type of FU issued
system.cpu0.iq.FU_type_0::SimdFloatAlu              0      0.00%     83.61% # Type of FU issued
system.cpu0.iq.FU_type_0::SimdFloatCmp              0      0.00%     83.61% # Type of FU issued
system.cpu0.iq.FU_type_0::SimdFloatCvt              0      0.00%     83.61% # Type of FU issued
system.cpu0.iq.FU_type_0::SimdFloatDiv              0      0.00%     83.61% # Type of FU issued
system.cpu0.iq.FU_type_0::SimdFloatMisc             0      0.00%     83.61% # Type of FU issued
system.cpu0.iq.FU_type_0::SimdFloatMult             0      0.00%     83.61% # Type of FU issued
system.cpu0.iq.FU_type_0::SimdFloatMultAcc            0      0.00%     83.61% # Type of FU issued
system.cpu0.iq.FU_type_0::SimdFloatSqrt             0      0.00%     83.61% # Type of FU issued
system.cpu0.iq.FU_type_0::MemRead              819083     15.53%     99.13% # Type of FU issued
system.cpu0.iq.FU_type_0::MemWrite              43020      0.82%     99.95% # Type of FU issued
system.cpu0.iq.FU_type_0::FloatMemRead           2236      0.04%     99.99% # Type of FU issued
system.cpu0.iq.FU_type_0::FloatMemWrite           401      0.01%    100.00% # Type of FU issued
system.cpu0.iq.FU_type_0::IprAccess                 0      0.00%    100.00% # Type of FU issued
system.cpu0.iq.FU_type_0::InstPrefetch              0      0.00%    100.00% # Type of FU issued
system.cpu0.iq.FU_type_0::total               5275775                       # Type of FU issued
system.cpu0.iq.rate                          0.172780                       # Inst issue rate
system.cpu0.iq.fu_busy_cnt                      13587                       # FU busy when requested
system.cpu0.iq.fu_busy_rate                  0.002575                       # FU busy rate (busy events/executed inst)
system.cpu0.iq.int_inst_queue_reads          41056060                       # Number of integer instruction queue reads
system.cpu0.iq.int_inst_queue_writes         11879027                       # Number of integer instruction queue writes
system.cpu0.iq.int_inst_queue_wakeup_accesses      5091221                       # Number of integer instruction queue wakeup accesses
system.cpu0.iq.fp_inst_queue_reads              33194                       # Number of floating instruction queue reads
system.cpu0.iq.fp_inst_queue_writes             32118                       # Number of floating instruction queue writes
system.cpu0.iq.fp_inst_queue_wakeup_accesses        14693                       # Number of floating instruction queue wakeup accesses
system.cpu0.iq.vec_inst_queue_reads                 0                       # Number of vector instruction queue reads
system.cpu0.iq.vec_inst_queue_writes                0                       # Number of vector instruction queue writes
system.cpu0.iq.vec_inst_queue_wakeup_accesses            0                       # Number of vector instruction queue wakeup accesses
system.cpu0.iq.int_alu_accesses               5260111                       # Number of integer alu accesses
system.cpu0.iq.fp_alu_accesses                  17119                       # Number of floating point alu accesses
system.cpu0.iq.vec_alu_accesses                     0                       # Number of vector alu accesses
system.cpu0.iew.lsq.thread0.forwLoads            4306                       # Number of loads that had data forwarded from stores
system.cpu0.iew.lsq.thread0.invAddrLoads            0                       # Number of loads ignored due to an invalid address
system.cpu0.iew.lsq.thread0.squashedLoads       872626                       # Number of loads squashed
system.cpu0.iew.lsq.thread0.ignoredResponses          109                       # Number of memory responses ignored because the instruction is squashed
system.cpu0.iew.lsq.thread0.memOrderViolation            1                       # Number of memory ordering violations
system.cpu0.iew.lsq.thread0.squashedStores        30199                       # Number of stores squashed
system.cpu0.iew.lsq.thread0.invAddrSwpfs            0                       # Number of software prefetches ignored due to an invalid address
system.cpu0.iew.lsq.thread0.blockedLoads            0                       # Number of blocked loads due to partial load-store forwarding
system.cpu0.iew.lsq.thread0.rescheduledLoads           42                       # Number of loads that were rescheduled
system.cpu0.iew.lsq.thread0.cacheBlocked         2705                       # Number of times an access to memory failed due to the cache being blocked
system.cpu0.iew.iewIdleCycles                       0                       # Number of cycles IEW is idle
system.cpu0.iew.iewSquashCycles                 61462                       # Number of cycles IEW is squashing
system.cpu0.iew.iewBlockCycles               25688455                       # Number of cycles IEW is blocking
system.cpu0.iew.iewUnblockCycles               264296                       # Number of cycles IEW is unblocking
system.cpu0.iew.iewDispatchedInsts            7452354                       # Number of instructions dispatched to IQ
system.cpu0.iew.iewDispSquashedInsts             2934                       # Number of squashed instructions skipped by dispatch
system.cpu0.iew.iewDispLoadInsts              1441599                       # Number of dispatched load instructions
system.cpu0.iew.iewDispStoreInsts               57215                       # Number of dispatched store instructions
system.cpu0.iew.iewDispNonSpecInsts              1312                       # Number of dispatched non-speculative instructions
system.cpu0.iew.iewIQFullEvents                 17429                       # Number of times the IQ has become full, causing a stall
system.cpu0.iew.iewLSQFullEvents                32518                       # Number of times the LSQ has become full, causing a stall
system.cpu0.iew.memOrderViolationEvents             1                       # Number of memory order violations
system.cpu0.iew.predictedTakenIncorrect         37005                       # Number of branches that were predicted taken incorrectly
system.cpu0.iew.predictedNotTakenIncorrect        29667                       # Number of branches that were predicted not taken incorrectly
system.cpu0.iew.branchMispredicts               66672                       # Number of branch mispredicts detected at execute
system.cpu0.iew.iewExecutedInsts              5203064                       # Number of executed instructions
system.cpu0.iew.iewExecLoadInsts               790743                       # Number of load instructions executed
system.cpu0.iew.iewExecSquashedInsts            72711                       # Number of squashed instructions skipped in execute
system.cpu0.iew.exec_swp                            0                       # number of swp insts executed
system.cpu0.iew.exec_nop                            0                       # number of nop insts executed
system.cpu0.iew.exec_refs                      831363                       # number of memory reference insts executed
system.cpu0.iew.exec_branches                  637659                       # Number of branches executed
system.cpu0.iew.exec_stores                     40620                       # Number of stores executed
system.cpu0.iew.exec_rate                    0.170398                       # Inst execution rate
system.cpu0.iew.wb_sent                       5118113                       # cumulative count of insts sent to commit
system.cpu0.iew.wb_count                      5105914                       # cumulative count of insts written-back
system.cpu0.iew.wb_producers                  3786391                       # num instructions producing a value
system.cpu0.iew.wb_consumers                  5959205                       # num instructions consuming a value
system.cpu0.iew.wb_rate                      0.167217                       # insts written-back per cycle
system.cpu0.iew.wb_fanout                    0.635385                       # average fanout of values written-back
system.cpu0.commit.commitSquashedInsts        4459208                       # The number of squashed insts skipped by commit
system.cpu0.commit.branchMispredicts            61462                       # The number of times a branch was mispredicted
system.cpu0.commit.committed_per_cycle::samples     29910583                       # Number of insts commited each cycle
system.cpu0.commit.committed_per_cycle::mean     0.100083                       # Number of insts commited each cycle
system.cpu0.commit.committed_per_cycle::stdev     0.588941                       # Number of insts commited each cycle
system.cpu0.commit.committed_per_cycle::underflows            0      0.00%      0.00% # Number of insts commited each cycle
system.cpu0.commit.committed_per_cycle::0     28627295     95.71%     95.71% # Number of insts commited each cycle
system.cpu0.commit.committed_per_cycle::1       590026      1.97%     97.68% # Number of insts commited each cycle
system.cpu0.commit.committed_per_cycle::2       138995      0.46%     98.15% # Number of insts commited each cycle
system.cpu0.commit.committed_per_cycle::3       382318      1.28%     99.43% # Number of insts commited each cycle
system.cpu0.commit.committed_per_cycle::4        66342      0.22%     99.65% # Number of insts commited each cycle
system.cpu0.commit.committed_per_cycle::5        38107      0.13%     99.77% # Number of insts commited each cycle
system.cpu0.commit.committed_per_cycle::6         6581      0.02%     99.80% # Number of insts commited each cycle
system.cpu0.commit.committed_per_cycle::7         4174      0.01%     99.81% # Number of insts commited each cycle
system.cpu0.commit.committed_per_cycle::8        56745      0.19%    100.00% # Number of insts commited each cycle
system.cpu0.commit.committed_per_cycle::overflows            0      0.00%    100.00% # Number of insts commited each cycle
system.cpu0.commit.committed_per_cycle::min_value            0                       # Number of insts commited each cycle
system.cpu0.commit.committed_per_cycle::max_value            8                       # Number of insts commited each cycle
system.cpu0.commit.committed_per_cycle::total     29910583                       # Number of insts commited each cycle
system.cpu0.commit.committedInsts             1497530                       # Number of instructions committed
system.cpu0.commit.committedOps               2993537                       # Number of ops (including micro ops) committed
system.cpu0.commit.swp_count                        0                       # Number of s/w prefetches committed
system.cpu0.commit.refs                        595986                       # Number of memory references committed
system.cpu0.commit.loads                       568970                       # Number of loads committed
system.cpu0.commit.membars                          0                       # Number of memory barriers committed
system.cpu0.commit.branches                    542883                       # Number of branches committed
system.cpu0.commit.vec_insts                        0                       # Number of committed Vector instructions.
system.cpu0.commit.fp_insts                     10894                       # Number of committed floating point instructions.
system.cpu0.commit.int_insts                  2982573                       # Number of committed integer instructions.
system.cpu0.commit.function_calls                4775                       # Number of function calls committed.
system.cpu0.commit.op_class_0::No_OpClass         3258      0.11%      0.11% # Class of committed instruction
system.cpu0.commit.op_class_0::IntAlu         2376927     79.40%     79.51% # Class of committed instruction
system.cpu0.commit.op_class_0::IntMult            191      0.01%     79.52% # Class of committed instruction
system.cpu0.commit.op_class_0::IntDiv            7875      0.26%     79.78% # Class of committed instruction
system.cpu0.commit.op_class_0::FloatAdd          9300      0.31%     80.09% # Class of committed instruction
system.cpu0.commit.op_class_0::FloatCmp             0      0.00%     80.09% # Class of committed instruction
system.cpu0.commit.op_class_0::FloatCvt             0      0.00%     80.09% # Class of committed instruction
system.cpu0.commit.op_class_0::FloatMult            0      0.00%     80.09% # Class of committed instruction
system.cpu0.commit.op_class_0::FloatMultAcc            0      0.00%     80.09% # Class of committed instruction
system.cpu0.commit.op_class_0::FloatDiv             0      0.00%     80.09% # Class of committed instruction
system.cpu0.commit.op_class_0::FloatMisc            0      0.00%     80.09% # Class of committed instruction
system.cpu0.commit.op_class_0::FloatSqrt            0      0.00%     80.09% # Class of committed instruction
system.cpu0.commit.op_class_0::SimdAdd              0      0.00%     80.09% # Class of committed instruction
system.cpu0.commit.op_class_0::SimdAddAcc            0      0.00%     80.09% # Class of committed instruction
system.cpu0.commit.op_class_0::SimdAlu              0      0.00%     80.09% # Class of committed instruction
system.cpu0.commit.op_class_0::SimdCmp              0      0.00%     80.09% # Class of committed instruction
system.cpu0.commit.op_class_0::SimdCvt              0      0.00%     80.09% # Class of committed instruction
system.cpu0.commit.op_class_0::SimdMisc             0      0.00%     80.09% # Class of committed instruction
system.cpu0.commit.op_class_0::SimdMult             0      0.00%     80.09% # Class of committed instruction
system.cpu0.commit.op_class_0::SimdMultAcc            0      0.00%     80.09% # Class of committed instruction
system.cpu0.commit.op_class_0::SimdShift            0      0.00%     80.09% # Class of committed instruction
system.cpu0.commit.op_class_0::SimdShiftAcc            0      0.00%     80.09% # Class of committed instruction
system.cpu0.commit.op_class_0::SimdSqrt             0      0.00%     80.09% # Class of committed instruction
system.cpu0.commit.op_class_0::SimdFloatAdd            0      0.00%     80.09% # Class of committed instruction
system.cpu0.commit.op_class_0::SimdFloatAlu            0      0.00%     80.09% # Class of committed instruction
system.cpu0.commit.op_class_0::SimdFloatCmp            0      0.00%     80.09% # Class of committed instruction
system.cpu0.commit.op_class_0::SimdFloatCvt            0      0.00%     80.09% # Class of committed instruction
system.cpu0.commit.op_class_0::SimdFloatDiv            0      0.00%     80.09% # Class of committed instruction
system.cpu0.commit.op_class_0::SimdFloatMisc            0      0.00%     80.09% # Class of committed instruction
system.cpu0.commit.op_class_0::SimdFloatMult            0      0.00%     80.09% # Class of committed instruction
system.cpu0.commit.op_class_0::SimdFloatMultAcc            0      0.00%     80.09% # Class of committed instruction
system.cpu0.commit.op_class_0::SimdFloatSqrt            0      0.00%     80.09% # Class of committed instruction
system.cpu0.commit.op_class_0::MemRead         567376     18.95%     99.04% # Class of committed instruction
system.cpu0.commit.op_class_0::MemWrite         27016      0.90%     99.95% # Class of committed instruction
system.cpu0.commit.op_class_0::FloatMemRead         1594      0.05%    100.00% # Class of committed instruction
system.cpu0.commit.op_class_0::FloatMemWrite            0      0.00%    100.00% # Class of committed instruction
system.cpu0.commit.op_class_0::IprAccess            0      0.00%    100.00% # Class of committed instruction
system.cpu0.commit.op_class_0::InstPrefetch            0      0.00%    100.00% # Class of committed instruction
system.cpu0.commit.op_class_0::total          2993537                       # Class of committed instruction
system.cpu0.commit.bw_lim_events                56745                       # number cycles where commit BW limit reached
system.cpu0.rob.rob_reads                    37306583                       # The number of ROB reads
system.cpu0.rob.rob_writes                   15515667                       # The number of ROB writes
system.cpu0.timesIdled                            147                       # Number of times that the entire CPU went into an idle state and unscheduled itself
system.cpu0.idleCycles                          15201                       # Total number of cycles that the CPU has spent unscheduled due to idling
system.cpu0.committedInsts                    1497530                       # Number of Instructions Simulated
system.cpu0.committedOps                      2993537                       # Number of Ops (including micro ops) Simulated
system.cpu0.cpi                             20.390034                       # CPI: Cycles Per Instruction
system.cpu0.cpi_total                       20.390034                       # CPI: Total CPI of All Threads
system.cpu0.ipc                              0.049044                       # IPC: Instructions Per Cycle
system.cpu0.ipc_total                        0.049044                       # IPC: Total IPC of All Threads
system.cpu0.int_regfile_reads                 5029517                       # number of integer regfile reads
system.cpu0.int_regfile_writes                4433732                       # number of integer regfile writes
system.cpu0.fp_regfile_reads                    26077                       # number of floating regfile reads
system.cpu0.fp_regfile_writes                   12924                       # number of floating regfile writes
system.cpu0.cc_regfile_reads                  3416219                       # number of cc regfile reads
system.cpu0.cc_regfile_writes                 1398133                       # number of cc regfile writes
system.cpu0.misc_regfile_reads                2796687                       # number of misc regfile reads
system.cpu0.dcache.tags.pwrStateResidencyTicks::UNDEFINED  15267344125                       # Cumulative time (in ticks) in various power states
system.cpu0.dcache.tags.replacements           295780                       # number of replacements
system.cpu0.dcache.tags.tagsinuse                1024                       # Cycle average of tags in use
system.cpu0.dcache.tags.total_refs             293646                       # Total number of references to valid blocks.
system.cpu0.dcache.tags.sampled_refs           295780                       # Sample count of references to valid blocks.
system.cpu0.dcache.tags.avg_refs             0.992785                       # Average number of references to valid blocks.
system.cpu0.dcache.tags.warmup_cycle                0                       # Cycle when the warmup percentage was hit.
system.cpu0.dcache.tags.occ_blocks::cpu0.data         1024                       # Average occupied blocks per requestor
system.cpu0.dcache.tags.occ_percent::cpu0.data            1                       # Average percentage of cache occupancy
system.cpu0.dcache.tags.occ_percent::total            1                       # Average percentage of cache occupancy
system.cpu0.dcache.tags.occ_task_id_blocks::1024         1024                       # Occupied blocks per task id
system.cpu0.dcache.tags.age_task_id_blocks_1024::0          154                       # Occupied blocks per task id
system.cpu0.dcache.tags.age_task_id_blocks_1024::1          766                       # Occupied blocks per task id
system.cpu0.dcache.tags.age_task_id_blocks_1024::2          104                       # Occupied blocks per task id
system.cpu0.dcache.tags.occ_task_id_percent::1024            1                       # Percentage of cache occupancy per task id
system.cpu0.dcache.tags.tag_accesses          3529376                       # Number of tag accesses
system.cpu0.dcache.tags.data_accesses         3529376                       # Number of data accesses
system.cpu0.dcache.pwrStateResidencyTicks::UNDEFINED  15267344125                       # Cumulative time (in ticks) in various power states
system.cpu0.dcache.ReadReq_hits::cpu0.data       267375                       # number of ReadReq hits
system.cpu0.dcache.ReadReq_hits::total         267375                       # number of ReadReq hits
system.cpu0.dcache.WriteReq_hits::cpu0.data        25959                       # number of WriteReq hits
system.cpu0.dcache.WriteReq_hits::total         25959                       # number of WriteReq hits
system.cpu0.dcache.demand_hits::cpu0.data       293334                       # number of demand (read+write) hits
system.cpu0.dcache.demand_hits::total          293334                       # number of demand (read+write) hits
system.cpu0.dcache.overall_hits::cpu0.data       293334                       # number of overall hits
system.cpu0.dcache.overall_hits::total         293334                       # number of overall hits
system.cpu0.dcache.ReadReq_misses::cpu0.data       514008                       # number of ReadReq misses
system.cpu0.dcache.ReadReq_misses::total       514008                       # number of ReadReq misses
system.cpu0.dcache.WriteReq_misses::cpu0.data         1057                       # number of WriteReq misses
system.cpu0.dcache.WriteReq_misses::total         1057                       # number of WriteReq misses
system.cpu0.dcache.demand_misses::cpu0.data       515065                       # number of demand (read+write) misses
system.cpu0.dcache.demand_misses::total        515065                       # number of demand (read+write) misses
system.cpu0.dcache.overall_misses::cpu0.data       515065                       # number of overall misses
system.cpu0.dcache.overall_misses::total       515065                       # number of overall misses
system.cpu0.dcache.ReadReq_miss_latency::cpu0.data  34297204500                       # number of ReadReq miss cycles
system.cpu0.dcache.ReadReq_miss_latency::total  34297204500                       # number of ReadReq miss cycles
system.cpu0.dcache.WriteReq_miss_latency::cpu0.data     38687994                       # number of WriteReq miss cycles
system.cpu0.dcache.WriteReq_miss_latency::total     38687994                       # number of WriteReq miss cycles
system.cpu0.dcache.demand_miss_latency::cpu0.data  34335892494                       # number of demand (read+write) miss cycles
system.cpu0.dcache.demand_miss_latency::total  34335892494                       # number of demand (read+write) miss cycles
system.cpu0.dcache.overall_miss_latency::cpu0.data  34335892494                       # number of overall miss cycles
system.cpu0.dcache.overall_miss_latency::total  34335892494                       # number of overall miss cycles
system.cpu0.dcache.ReadReq_accesses::cpu0.data       781383                       # number of ReadReq accesses(hits+misses)
system.cpu0.dcache.ReadReq_accesses::total       781383                       # number of ReadReq accesses(hits+misses)
system.cpu0.dcache.WriteReq_accesses::cpu0.data        27016                       # number of WriteReq accesses(hits+misses)
system.cpu0.dcache.WriteReq_accesses::total        27016                       # number of WriteReq accesses(hits+misses)
system.cpu0.dcache.demand_accesses::cpu0.data       808399                       # number of demand (read+write) accesses
system.cpu0.dcache.demand_accesses::total       808399                       # number of demand (read+write) accesses
system.cpu0.dcache.overall_accesses::cpu0.data       808399                       # number of overall (read+write) accesses
system.cpu0.dcache.overall_accesses::total       808399                       # number of overall (read+write) accesses
system.cpu0.dcache.ReadReq_miss_rate::cpu0.data     0.657818                       # miss rate for ReadReq accesses
system.cpu0.dcache.ReadReq_miss_rate::total     0.657818                       # miss rate for ReadReq accesses
system.cpu0.dcache.WriteReq_miss_rate::cpu0.data     0.039125                       # miss rate for WriteReq accesses
system.cpu0.dcache.WriteReq_miss_rate::total     0.039125                       # miss rate for WriteReq accesses
system.cpu0.dcache.demand_miss_rate::cpu0.data     0.637142                       # miss rate for demand accesses
system.cpu0.dcache.demand_miss_rate::total     0.637142                       # miss rate for demand accesses
system.cpu0.dcache.overall_miss_rate::cpu0.data     0.637142                       # miss rate for overall accesses
system.cpu0.dcache.overall_miss_rate::total     0.637142                       # miss rate for overall accesses
system.cpu0.dcache.ReadReq_avg_miss_latency::cpu0.data 66725.040272                       # average ReadReq miss latency
system.cpu0.dcache.ReadReq_avg_miss_latency::total 66725.040272                       # average ReadReq miss latency
system.cpu0.dcache.WriteReq_avg_miss_latency::cpu0.data 36601.697256                       # average WriteReq miss latency
system.cpu0.dcache.WriteReq_avg_miss_latency::total 36601.697256                       # average WriteReq miss latency
system.cpu0.dcache.demand_avg_miss_latency::cpu0.data 66663.222106                       # average overall miss latency
system.cpu0.dcache.demand_avg_miss_latency::total 66663.222106                       # average overall miss latency
[...]
system.l2.ReadSharedReq_hits::cpu0.data        109640                       # number of ReadSharedReq hits
system.l2.ReadSharedReq_hits::total            109640                       # number of ReadSharedReq hits
system.l2.demand_hits::cpu0.data               110429                       # number of demand (read+write) hits
system.l2.demand_hits::total                   110429                       # number of demand (read+write) hits
system.l2.overall_hits::cpu0.data              110429                       # number of overall hits
system.l2.overall_hits::total                  110429                       # number of overall hits
system.l2.ReadExReq_misses::cpu0.data             265                       # number of ReadExReq misses
system.l2.ReadExReq_misses::total                 265                       # number of ReadExReq misses
system.l2.ReadSharedReq_misses::cpu0.data       185085                       # number of ReadSharedReq misses
system.l2.ReadSharedReq_misses::total          185085                       # number of ReadSharedReq misses
system.l2.demand_misses::cpu0.data             185350                       # number of demand (read+write) misses
system.l2.demand_misses::total                 185350                       # number of demand (read+write) misses
system.l2.overall_misses::cpu0.data            185350                       # number of overall misses
system.l2.overall_misses::total                185350                       # number of overall misses
system.l2.ReadExReq_miss_latency::cpu0.data     27057500                       # number of ReadExReq miss cycles
system.l2.ReadExReq_miss_latency::total      27057500                       # number of ReadExReq miss cycles
system.l2.ReadSharedReq_miss_latency::cpu0.data  17590314000                       # number of ReadSharedReq miss cycles
system.l2.ReadSharedReq_miss_latency::total  17590314000                       # number of ReadSharedReq miss cycles
system.l2.demand_miss_latency::cpu0.data  17617371500                       # number of demand (read+write) miss cycles
system.l2.demand_miss_latency::total      17617371500                       # number of demand (read+write) miss cycles
system.l2.overall_miss_latency::cpu0.data  17617371500                       # number of overall miss cycles
system.l2.overall_miss_latency::total     17617371500                       # number of overall miss cycles
system.l2.WritebackDirty_accesses::writebacks         3114                       # number of WritebackDirty accesses(hits+misses)
system.l2.WritebackDirty_accesses::total         3114                       # number of WritebackDirty accesses(hits+misses)
system.l2.ReadExReq_accesses::cpu0.data          1054                       # number of ReadExReq accesses(hits+misses)
system.l2.ReadExReq_accesses::total              1054                       # number of ReadExReq accesses(hits+misses)
system.l2.ReadSharedReq_accesses::cpu0.data       294725                       # number of ReadSharedReq accesses(hits+misses)
system.l2.ReadSharedReq_accesses::total        294725                       # number of ReadSharedReq accesses(hits+misses)
system.l2.demand_accesses::cpu0.data           295779                       # number of demand (read+write) accesses
system.l2.demand_accesses::total               295779                       # number of demand (read+write) accesses
system.l2.overall_accesses::cpu0.data          295779                       # number of overall (read+write) accesses
system.l2.overall_accesses::total              295779                       # number of overall (read+write) accesses
system.l2.ReadExReq_miss_rate::cpu0.data     0.251423                       # miss rate for ReadExReq accesses
system.l2.ReadExReq_miss_rate::total         0.251423                       # miss rate for ReadExReq accesses
system.l2.ReadSharedReq_miss_rate::cpu0.data     0.627992                       # miss rate for ReadSharedReq accesses
system.l2.ReadSharedReq_miss_rate::total     0.627992                       # miss rate for ReadSharedReq accesses
system.l2.demand_miss_rate::cpu0.data        0.626650                       # miss rate for demand accesses
system.l2.demand_miss_rate::total            0.626650                       # miss rate for demand accesses
system.l2.overall_miss_rate::cpu0.data       0.626650                       # miss rate for overall accesses
system.l2.overall_miss_rate::total           0.626650                       # miss rate for overall accesses
system.l2.ReadExReq_avg_miss_latency::cpu0.data 102103.773585                       # average ReadExReq miss latency
system.l2.ReadExReq_avg_miss_latency::total 102103.773585                       # average ReadExReq miss latency
system.l2.ReadSharedReq_avg_miss_latency::cpu0.data 95039.111759                       # average ReadSharedReq miss latency
system.l2.ReadSharedReq_avg_miss_latency::total 95039.111759                       # average ReadSharedReq miss latency
system.l2.demand_avg_miss_latency::cpu0.data 95049.212301                       # average overall miss latency
system.l2.demand_avg_miss_latency::total 95049.212301                       # average overall miss latency
system.l2.overall_avg_miss_latency::cpu0.data 95049.212301                       # average overall miss latency
system.l2.overall_avg_miss_latency::total 95049.212301                       # average overall miss latency
system.l2.blocked_cycles::no_mshrs                  0                       # number of cycles access was blocked
system.l2.blocked_cycles::no_targets                0                       # number of cycles access was blocked
system.l2.blocked::no_mshrs                         0                       # number of cycles access was blocked
system.l2.blocked::no_targets                       0                       # number of cycles access was blocked
system.l2.avg_blocked_cycles::no_mshrs            nan                       # average number of cycles each access was blocked
system.l2.avg_blocked_cycles::no_targets          nan                       # average number of cycles each access was blocked
system.l2.writebacks::writebacks                  351                       # number of writebacks
system.l2.writebacks::total                       351                       # number of writebacks
system.l2.ReadExReq_mshr_misses::cpu0.data          265                       # number of ReadExReq MSHR misses
system.l2.ReadExReq_mshr_misses::total            265                       # number of ReadExReq MSHR misses
system.l2.ReadSharedReq_mshr_misses::cpu0.data       185085                       # number of ReadSharedReq MSHR misses
system.l2.ReadSharedReq_mshr_misses::total       185085                       # number of ReadSharedReq MSHR misses
system.l2.demand_mshr_misses::cpu0.data        185350                       # number of demand (read+write) MSHR misses
system.l2.demand_mshr_misses::total            185350                       # number of demand (read+write) MSHR misses
system.l2.overall_mshr_misses::cpu0.data       185350                       # number of overall MSHR misses
system.l2.overall_mshr_misses::total           185350                       # number of overall MSHR misses
system.l2.ReadExReq_mshr_miss_latency::cpu0.data     24407500                       # number of ReadExReq MSHR miss cycles
system.l2.ReadExReq_mshr_miss_latency::total     24407500                       # number of ReadExReq MSHR miss cycles
system.l2.ReadSharedReq_mshr_miss_latency::cpu0.data  15739444000                       # number of ReadSharedReq MSHR miss cycles
system.l2.ReadSharedReq_mshr_miss_latency::total  15739444000                       # number of ReadSharedReq MSHR miss cycles
system.l2.demand_mshr_miss_latency::cpu0.data  15763851500                       # number of demand (read+write) MSHR miss cycles
system.l2.demand_mshr_miss_latency::total  15763851500                       # number of demand (read+write) MSHR miss cycles
system.l2.overall_mshr_miss_latency::cpu0.data  15763851500                       # number of overall MSHR miss cycles
system.l2.overall_mshr_miss_latency::total  15763851500                       # number of overall MSHR miss cycles
system.l2.ReadExReq_mshr_miss_rate::cpu0.data     0.251423                       # mshr miss rate for ReadExReq accesses
system.l2.ReadExReq_mshr_miss_rate::total     0.251423                       # mshr miss rate for ReadExReq accesses
system.l2.ReadSharedReq_mshr_miss_rate::cpu0.data     0.627992                       # mshr miss rate for ReadSharedReq accesses
system.l2.ReadSharedReq_mshr_miss_rate::total     0.627992                       # mshr miss rate for ReadSharedReq accesses
system.l2.demand_mshr_miss_rate::cpu0.data     0.626650                       # mshr miss rate for demand accesses
system.l2.demand_mshr_miss_rate::total       0.626650                       # mshr miss rate for demand accesses
system.l2.overall_mshr_miss_rate::cpu0.data     0.626650                       # mshr miss rate for overall accesses
system.l2.overall_mshr_miss_rate::total      0.626650                       # mshr miss rate for overall accesses
system.l2.ReadExReq_avg_mshr_miss_latency::cpu0.data 92103.773585                       # average ReadExReq mshr miss latency
system.l2.ReadExReq_avg_mshr_miss_latency::total 92103.773585                       # average ReadExReq mshr miss latency
system.l2.ReadSharedReq_avg_mshr_miss_latency::cpu0.data 85039.003701                       # average ReadSharedReq mshr miss latency
system.l2.ReadSharedReq_avg_mshr_miss_latency::total 85039.003701                       # average ReadSharedReq mshr miss latency
system.l2.demand_avg_mshr_miss_latency::cpu0.data 85049.104397                       # average overall mshr miss latency
system.l2.demand_avg_mshr_miss_latency::total 85049.104397                       # average overall mshr miss latency
system.l2.overall_avg_mshr_miss_latency::cpu0.data 85049.104397                       # average overall mshr miss latency
system.l2.overall_avg_mshr_miss_latency::total 85049.104397                       # average overall mshr miss latency
system.membus.snoop_filter.tot_requests        370701                       # Total number of requests made to the snoop filter.
system.membus.snoop_filter.hit_single_requests       185351                       # Number of requests hitting in the snoop filter with a single holder of the requested data.
system.membus.snoop_filter.hit_multi_requests            0                       # Number of requests hitting in the snoop filter with multiple (>1) holders of the requested data.
system.membus.snoop_filter.tot_snoops               0                       # Total number of snoops made to the snoop filter.
system.membus.snoop_filter.hit_single_snoops            0                       # Number of snoops hitting in the snoop filter with a single holder of the requested data.
system.membus.snoop_filter.hit_multi_snoops            0                       # Number of snoops hitting in the snoop filter with multiple (>1) holders of the requested data.
system.membus.pwrStateResidencyTicks::UNDEFINED  15267344125                       # Cumulative time (in ticks) in various power states
system.membus.trans_dist::ReadResp             185087                       # Transaction distribution
system.membus.trans_dist::WritebackDirty          351                       # Transaction distribution
system.membus.trans_dist::CleanEvict           185000                       # Transaction distribution
system.membus.trans_dist::ReadExReq               265                       # Transaction distribution
system.membus.trans_dist::ReadExResp              265                       # Transaction distribution
system.membus.trans_dist::ReadSharedReq        185085                       # Transaction distribution
system.membus.pkt_count_system.l2.mem_side::system.mem_ctrls.port       556053                       # Packet count per connected master and slave (bytes)
system.membus.pkt_count_system.l2.mem_side::total       556053                       # Packet count per connected master and slave (bytes)
system.membus.pkt_count::total                 556053                       # Packet count per connected master and slave (bytes)
system.membus.pkt_size_system.l2.mem_side::system.mem_ctrls.port     11884992                       # Cumulative packet size per connected master and slave (bytes)
system.membus.pkt_size_system.l2.mem_side::total     11884992                       # Cumulative packet size per connected master and slave (bytes)
system.membus.pkt_size::total                11884992                       # Cumulative packet size per connected master and slave (bytes)
system.membus.snoops                                0                       # Total snoops (count)
system.membus.snoopTraffic                          0                       # Total snoop traffic (bytes)
system.membus.snoop_fanout::samples            185350                       # Request fanout histogram
system.membus.snoop_fanout::mean                    0                       # Request fanout histogram
system.membus.snoop_fanout::stdev                   0                       # Request fanout histogram
system.membus.snoop_fanout::underflows              0      0.00%      0.00% # Request fanout histogram
system.membus.snoop_fanout::0                  185350    100.00%    100.00% # Request fanout histogram
system.membus.snoop_fanout::1                       0      0.00%    100.00% # Request fanout histogram
system.membus.snoop_fanout::overflows               0      0.00%    100.00% # Request fanout histogram
system.membus.snoop_fanout::min_value               0                       # Request fanout histogram
system.membus.snoop_fanout::max_value               0                       # Request fanout histogram
system.membus.snoop_fanout::total              185350                       # Request fanout histogram
system.membus.reqLayer8.occupancy           435820500                       # Layer occupancy (ticks)
system.membus.reqLayer8.utilization               2.9                       # Layer utilization (%)
system.membus.respLayer1.occupancy         1003701500                       # Layer occupancy (ticks)
system.membus.respLayer1.utilization              6.6                       # Layer utilization (%)
system.tol2bus.snoop_filter.tot_requests       591559                       # Total number of requests made to the snoop filter.
system.tol2bus.snoop_filter.hit_single_requests       295781                       # Number of requests hitting in the snoop filter with a single holder of the requested data.
system.tol2bus.snoop_filter.hit_multi_requests          781                       # Number of requests hitting in the snoop filter with multiple (>1) holders of the requested data.
system.tol2bus.snoop_filter.tot_snoops              0                       # Total number of snoops made to the snoop filter.
system.tol2bus.snoop_filter.hit_single_snoops            0                       # Number of snoops hitting in the snoop filter with a single holder of the requested data.
system.tol2bus.snoop_filter.hit_multi_snoops            0                       # Number of snoops hitting in the snoop filter with multiple (>1) holders of the requested data.
system.tol2bus.pwrStateResidencyTicks::UNDEFINED  15267344125                       # Cumulative time (in ticks) in various power states
system.tol2bus.trans_dist::ReadResp            294726                       # Transaction distribution
system.tol2bus.trans_dist::WritebackDirty         3465                       # Transaction distribution
system.tol2bus.trans_dist::CleanEvict          477667                       # Transaction distribution
system.tol2bus.trans_dist::ReadExReq             1054                       # Transaction distribution
system.tol2bus.trans_dist::ReadExResp            1054                       # Transaction distribution
system.tol2bus.trans_dist::ReadSharedReq       294725                       # Transaction distribution
system.tol2bus.pkt_count_system.cpu0.dcache.mem_side::system.l2.cpu_side       887339                       # Packet count per connected master and slave (bytes)
system.tol2bus.pkt_count::total                887339                       # Packet count per connected master and slave (bytes)
system.tol2bus.pkt_size_system.cpu0.dcache.mem_side::system.l2.cpu_side     19129216                       # Cumulative packet size per connected master and slave (bytes)
system.tol2bus.pkt_size::total               19129216                       # Cumulative packet size per connected master and slave (bytes)
system.tol2bus.snoops                          185352                       # Total snoops (count)
system.tol2bus.snoopTraffic                     22464                       # Total snoop traffic (bytes)
system.tol2bus.snoop_fanout::samples           481131                       # Request fanout histogram
system.tol2bus.snoop_fanout::mean            0.001625                       # Request fanout histogram
system.tol2bus.snoop_fanout::stdev           0.040283                       # Request fanout histogram
system.tol2bus.snoop_fanout::underflows             0      0.00%      0.00% # Request fanout histogram
system.tol2bus.snoop_fanout::0                 480349     99.84%     99.84% # Request fanout histogram
system.tol2bus.snoop_fanout::1                    782      0.16%    100.00% # Request fanout histogram
system.tol2bus.snoop_fanout::2                      0      0.00%    100.00% # Request fanout histogram
system.tol2bus.snoop_fanout::3                      0      0.00%    100.00% # Request fanout histogram
system.tol2bus.snoop_fanout::4                      0      0.00%    100.00% # Request fanout histogram
system.tol2bus.snoop_fanout::5                      0      0.00%    100.00% # Request fanout histogram
system.tol2bus.snoop_fanout::6                      0      0.00%    100.00% # Request fanout histogram
system.tol2bus.snoop_fanout::7                      0      0.00%    100.00% # Request fanout histogram
system.tol2bus.snoop_fanout::8                      0      0.00%    100.00% # Request fanout histogram
system.tol2bus.snoop_fanout::9                      0      0.00%    100.00% # Request fanout histogram
system.tol2bus.snoop_fanout::10                     0      0.00%    100.00% # Request fanout histogram
system.tol2bus.snoop_fanout::11                     0      0.00%    100.00% # Request fanout histogram
system.tol2bus.snoop_fanout::12                     0      0.00%    100.00% # Request fanout histogram
system.tol2bus.snoop_fanout::13                     0      0.00%    100.00% # Request fanout histogram
system.tol2bus.snoop_fanout::14                     0      0.00%    100.00% # Request fanout histogram
system.tol2bus.snoop_fanout::15                     0      0.00%    100.00% # Request fanout histogram
system.tol2bus.snoop_fanout::16                     0      0.00%    100.00% # Request fanout histogram
system.tol2bus.snoop_fanout::overflows              0      0.00%    100.00% # Request fanout histogram
system.tol2bus.snoop_fanout::min_value              0                       # Request fanout histogram
system.tol2bus.snoop_fanout::max_value              1                       # Request fanout histogram
system.tol2bus.snoop_fanout::total             481131                       # Request fanout histogram
system.tol2bus.reqLayer0.occupancy          298893500                       # Layer occupancy (ticks)
system.tol2bus.reqLayer0.utilization              2.0                       # Layer utilization (%)
system.tol2bus.respLayer1.occupancy         443670000                       # Layer occupancy (ticks)
system.tol2bus.respLayer1.utilization             2.9                       # Layer utilization (%)

---------- End Simulation Statistics   ----------
