
---------- Begin Simulation Statistics ----------
sim_seconds                                  0.015267                       # Number of seconds simulated
sim_ticks                                 15267344125                       # Number of ticks simulated
final_tick                               6610760006125                       # Number of ticks from beginning of simulation (restored from checkpoints and never reset)
sim_freq                                 1000000000000                       # Frequency of simulated ticks
host_inst_rate                              124113401                       # Simulator instruction rate (inst/s)
host_op_rate                                231173548                       # Simulator op (including micro ops) rate (op/s)
host_tick_rate                              317080224                       # Simulator tick rate (ticks/s)
host_mem_usage                                2332532                       # Number of bytes of host memory used
host_seconds                                    48.15                       # Real time elapsed on the host
sim_insts                                  5976031062                       # Number of instructions simulated
sim_ops                                   11130954366                       # Number of ops (including micro ops) simulated
system.voltage_domain.voltage                       1                       # Voltage in Volts
system.clk_domain.clock                          1000                       # Clock period in ticks
system.mem_ctrls.pwrStateResidencyTicks::UNDEFINED  15267344125                       # Cumulative time (in ticks) in various power states
system.mem_ctrls.bytes_read::cpu0.data       11936128                       # Number of bytes read from this memory
system.mem_ctrls.bytes_read::total           11936128                       # Number of bytes read from this memory
system.mem_ctrls.bytes_written::writebacks        21248                       # Number of bytes written to this memory
system.mem_ctrls.bytes_written::total           21248                       # Number of bytes written to this memory
system.mem_ctrls.num_reads::cpu0.data          186502                       # Number of read requests responded to by this memory
system.mem_ctrls.num_reads::total              186502                       # Number of read requests responded to by this memory
system.mem_ctrls.num_writes::writebacks           332                       # Number of write requests responded to by this memory
system.mem_ctrls.num_writes::total                332                       # Number of write requests responded to by this memory
system.mem_ctrls.bw_read::cpu0.data         781807753                       # Total read bandwidth from this memory (bytes/s)
system.mem_ctrls.bw_read::total             781807753                       # Total read bandwidth from this memory (bytes/s)
system.mem_ctrls.bw_write::writebacks         1391729                       # Write bandwidth from this memory (bytes/s)
system.mem_ctrls.bw_write::total              1391729                       # Write bandwidth from this memory (bytes/s)
system.mem_ctrls.bw_total::writebacks         1391729                       # Total bandwidth to/from this memory (bytes/s)
system.mem_ctrls.bw_total::cpu0.data        781807753                       # Total bandwidth to/from this memory (bytes/s)
system.mem_ctrls.bw_total::total            783199481                       # Total bandwidth to/from this memory (bytes/s)
system.mem_ctrls.readReqs                      186501                       # Number of read requests accepted
system.mem_ctrls.writeReqs                        332                       # Number of write requests accepted
system.mem_ctrls.readBursts                    186501                       # Number of DRAM read bursts, including those serviced by the write queue
system.mem_ctrls.writeBursts                      332                       # Number of DRAM write bursts, including those merged in the write queue
system.mem_ctrls.bytesReadDRAM               11932928                       # Total number of bytes read from DRAM
system.mem_ctrls.bytesReadWrQ                    3136                       # Total number of bytes read from write queue
system.mem_ctrls.bytesWritten                   20608                       # Total number of bytes written to DRAM
system.mem_ctrls.bytesReadSys                11936064                       # Total read bytes from the system interface side
system.mem_ctrls.bytesWrittenSys                21248                       # Total written bytes from the system interface side
system.mem_ctrls.servicedByWrQ                     49                       # Number of DRAM read bursts serviced by the write queue
system.mem_ctrls.mergedWrBursts                     0                       # Number of DRAM write bursts merged with an existing one
system.mem_ctrls.neitherReadNorWriteReqs            0                       # Number of requests that are neither read nor write
system.mem_ctrls.perBankRdBursts::0             11556                       # Per bank write bursts
system.mem_ctrls.perBankRdBursts::1             11442                       # Per bank write bursts
system.mem_ctrls.perBankRdBursts::2             11376                       # Per bank write bursts
system.mem_ctrls.perBankRdBursts::3             11927                       # Per bank write bursts
system.mem_ctrls.perBankRdBursts::4             12100                       # Per bank write bursts
system.mem_ctrls.perBankRdBursts::5             11937                       # Per bank write bursts
system.mem_ctrls.perBankRdBursts::6             11678                       # Per bank write bursts
system.mem_ctrls.perBankRdBursts::7             11722                       # Per bank write bursts
system.mem_ctrls.perBankRdBursts::8             11586                       # Per bank write bursts
system.mem_ctrls.perBankRdBursts::9             11437                       # Per bank write bursts
system.mem_ctrls.perBankRdBursts::10            11636                       # Per bank write bursts
system.mem_ctrls.perBankRdBursts::11            11346                       # Per bank write bursts
system.mem_ctrls.perBankRdBursts::12            11739                       # Per bank write bursts
system.mem_ctrls.perBankRdBursts::13            11941                       # Per bank write bursts
system.mem_ctrls.perBankRdBursts::14            11431                       # Per bank write bursts
system.mem_ctrls.perBankRdBursts::15            11598                       # Per bank write bursts
system.mem_ctrls.perBankWrBursts::0                 0                       # Per bank write bursts
system.mem_ctrls.perBankWrBursts::1                 0                       # Per bank write bursts
system.mem_ctrls.perBankWrBursts::2                 0                       # Per bank write bursts
system.mem_ctrls.perBankWrBursts::3                73                       # Per bank write bursts
system.mem_ctrls.perBankWrBursts::4                 8                       # Per bank write bursts
system.mem_ctrls.perBankWrBursts::5                 1                       # Per bank write bursts
system.mem_ctrls.perBankWrBursts::6                22                       # Per bank write bursts
system.mem_ctrls.perBankWrBursts::7               127                       # Per bank write bursts
system.mem_ctrls.perBankWrBursts::8                72                       # Per bank write bursts
system.mem_ctrls.perBankWrBursts::9                 0                       # Per bank write bursts
system.mem_ctrls.perBankWrBursts::10                0                       # Per bank write bursts
system.mem_ctrls.perBankWrBursts::11                0                       # Per bank write bursts
system.mem_ctrls.perBankWrBursts::12                0                       # Per bank write bursts
system.mem_ctrls.perBankWrBursts::13                0                       # Per bank write bursts
system.mem_ctrls.perBankWrBursts::14                0                       # Per bank write bursts
system.mem_ctrls.perBankWrBursts::15               19                       # Per bank write bursts
system.mem_ctrls.numRdRetry                         0                       # Number of times read queue was full causing retry
system.mem_ctrls.numWrRetry                         0                       # Number of times write queue was full causing retry
system.mem_ctrls.totGap                   15267315000                       # Total gap between requests
system.mem_ctrls.readPktSize::0                     0                       # Read request sizes (log2)
system.mem_ctrls.readPktSize::1                     0                       # Read request sizes (log2)
system.mem_ctrls.readPktSize::2                     0                       # Read request sizes (log2)
system.mem_ctrls.readPktSize::3                     0                       # Read request sizes (log2)
system.mem_ctrls.readPktSize::4                     0                       # Read request sizes (log2)
system.mem_ctrls.readPktSize::5                     0                       # Read request sizes (log2)
system.mem_ctrls.readPktSize::6                186501                       # Read request sizes (log2)
system.mem_ctrls.writePktSize::0                    0                       # Write request sizes (log2)
system.mem_ctrls.writePktSize::1                    0                       # Write request sizes (log2)
system.mem_ctrls.writePktSize::2                    0                       # Write request sizes (log2)
system.mem_ctrls.writePktSize::3                    0                       # Write request sizes (log2)
system.mem_ctrls.writePktSize::4                    0                       # Write request sizes (log2)
system.mem_ctrls.writePktSize::5                    0                       # Write request sizes (log2)
system.mem_ctrls.writePktSize::6                  332                       # Write request sizes (log2)
system.mem_ctrls.rdQLenPdf::0                  141721                       # What read queue length does an incoming req see
system.mem_ctrls.rdQLenPdf::1                   41663                       # What read queue length does an incoming req see
system.mem_ctrls.rdQLenPdf::2                    3014                       # What read queue length does an incoming req see
system.mem_ctrls.rdQLenPdf::3                      54                       # What read queue length does an incoming req see
system.mem_ctrls.rdQLenPdf::4                       0                       # What read queue length does an incoming req see
system.mem_ctrls.rdQLenPdf::5                       0                       # What read queue length does an incoming req see
system.mem_ctrls.rdQLenPdf::6                       0                       # What read queue length does an incoming req see
system.mem_ctrls.rdQLenPdf::7                       0                       # What read queue length does an incoming req see
system.mem_ctrls.rdQLenPdf::8                       0                       # What read queue length does an incoming req see
system.mem_ctrls.rdQLenPdf::9                       0                       # What read queue length does an incoming req see
system.mem_ctrls.rdQLenPdf::10                      0                       # What read queue length does an incoming req see
system.mem_ctrls.rdQLenPdf::11                      0                       # What read queue length does an incoming req see
system.mem_ctrls.rdQLenPdf::12                      0                       # What read queue length does an incoming req see
system.mem_ctrls.rdQLenPdf::13                      0                       # What read queue length does an incoming req see
system.mem_ctrls.rdQLenPdf::14                      0                       # What read queue length does an incoming req see
system.mem_ctrls.rdQLenPdf::15                      0                       # What read queue length does an incoming req see
system.mem_ctrls.rdQLenPdf::16                      0                       # What read queue length does an incoming req see
system.mem_ctrls.rdQLenPdf::17                      0                       # What read queue length does an incoming req see
system.mem_ctrls.rdQLenPdf::18                      0                       # What read queue length does an incoming req see
system.mem_ctrls.rdQLenPdf::19                      0                       # What read queue length does an incoming req see
system.mem_ctrls.rdQLenPdf::20                      0                       # What read queue length does an incoming req see
system.mem_ctrls.rdQLenPdf::21                      0                       # What read queue length does an incoming req see
system.mem_ctrls.rdQLenPdf::22                      0                       # What read queue length does an incoming req see
system.mem_ctrls.rdQLenPdf::23                      0                       # What read queue length does an incoming req see
system.mem_ctrls.rdQLenPdf::24                      0                       # What read queue length does an incoming req see
system.mem_ctrls.rdQLenPdf::25                      0                       # What read queue length does an incoming req see
system.mem_ctrls.rdQLenPdf::26                      0                       # What read queue length does an incoming req see
system.mem_ctrls.rdQLenPdf::27                      0                       # What read queue length does an incoming req see
system.mem_ctrls.rdQLenPdf::28                      0                       # What read queue length does an incoming req see
system.mem_ctrls.rdQLenPdf::29                      0                       # What read queue length does an incoming req see
system.mem_ctrls.rdQLenPdf::30                      0                       # What read queue length does an incoming req see
system.mem_ctrls.rdQLenPdf::31                      0                       # What read queue length does an incoming req see
system.mem_ctrls.wrQLenPdf::0                       0                       # What write queue length does an incoming req see
system.mem_ctrls.wrQLenPdf::1                       0                       # What write queue length does an incoming req see
system.mem_ctrls.wrQLenPdf::2                       0                       # What write queue length does an incoming req see
system.mem_ctrls.wrQLenPdf::3                       0                       # What write queue length does an incoming req see
system.mem_ctrls.wrQLenPdf::4                       0                       # What write queue length does an incoming req see
system.mem_ctrls.wrQLenPdf::5                       0                       # What write queue length does an incoming req see
system.mem_ctrls.wrQLenPdf::6                       0                       # What write queue length does an incoming req see
system.mem_ctrls.wrQLenPdf::7                       0                       # What write queue length does an incoming req see
system.mem_ctrls.wrQLenPdf::8                       0                       # What write queue length does an incoming req see
system.mem_ctrls.wrQLenPdf::9                       0                       # What write queue length does an incoming req see
system.mem_ctrls.wrQLenPdf::10                      0                       # What write queue length does an incoming req see
system.mem_ctrls.wrQLenPdf::11                      0                       # What write queue length does an incoming req see
system.mem_ctrls.wrQLenPdf::12                      0                       # What write queue length does an incoming req see
system.mem_ctrls.wrQLenPdf::13                      0                       # What write queue length does an incoming req see
system.mem_ctrls.wrQLenPdf::14                      0                       # What write queue length does an incoming req see
system.mem_ctrls.wrQLenPdf::15                      1                       # What write queue length does an incoming req see
system.mem_ctrls.wrQLenPdf::16                      1                       # What write queue length does an incoming req see
system.mem_ctrls.wrQLenPdf::17                     20                       # What write queue length does an incoming req see
system.mem_ctrls.wrQLenPdf::18                     20                       # What write queue length does an incoming req see
system.mem_ctrls.wrQLenPdf::19                     20                       # What write queue length does an incoming req see
system.mem_ctrls.wrQLenPdf::20                     21                       # What write queue length does an incoming req see
system.mem_ctrls.wrQLenPdf::21                     21                       # What write queue length does an incoming req see
system.mem_ctrls.wrQLenPdf::22                     21                       # What write queue length does an incoming req see
system.mem_ctrls.wrQLenPdf::23                     21                       # What write queue length does an incoming req see
system.mem_ctrls.wrQLenPdf::24                     21                       # What write queue length does an incoming req see
system.mem_ctrls.wrQLenPdf::25                     21                       # What write queue length does an incoming req see
system.mem_ctrls.wrQLenPdf::26                     21                       # What write queue length does an incoming req see
system.mem_ctrls.wrQLenPdf::27                     21                       # What write queue length does an incoming req see
system.mem_ctrls.wrQLenPdf::28                     21                       # What write queue length does an incoming req see
system.mem_ctrls.wrQLenPdf::29                     21                       # What write queue length does an incoming req see
system.mem_ctrls.wrQLenPdf::30                     20                       # What write queue length does an incoming req see
system.mem_ctrls.wrQLenPdf::31                     20                       # What write queue length does an incoming req see
system.mem_ctrls.wrQLenPdf::32                     20                       # What write queue length does an incoming req see
system.mem_ctrls.wrQLenPdf::33                      0                       # What write queue length does an incoming req see
system.mem_ctrls.wrQLenPdf::34                      0                       # What write queue length does an incoming req see
system.mem_ctrls.wrQLenPdf::35                      0                       # What write queue length does an incoming req see
system.mem_ctrls.wrQLenPdf::36                      0                       # What write queue length does an incoming req see
system.mem_ctrls.wrQLenPdf::37                      0                       # What write queue length does an incoming req see
system.mem_ctrls.wrQLenPdf::38                      0                       # What write queue length does an incoming req see
system.mem_ctrls.wrQLenPdf::39                      0                       # What write queue length does an incoming req see
system.mem_ctrls.wrQLenPdf::40                      0                       # What write queue length does an incoming req see
system.mem_ctrls.wrQLenPdf::41                      0                       # What write queue length does an incoming req see
system.mem_ctrls.wrQLenPdf::42                      0                       # What write queue length does an incoming req see
system.mem_ctrls.wrQLenPdf::43                      0                       # What write queue length does an incoming req see
system.mem_ctrls.wrQLenPdf::44                      0                       # What write queue length does an incoming req see
system.mem_ctrls.wrQLenPdf::45                      0                       # What write queue length does an incoming req see
system.mem_ctrls.wrQLenPdf::46                      0                       # What write queue length does an incoming req see
system.mem_ctrls.wrQLenPdf::47                      0                       # What write queue length does an incoming req see
system.mem_ctrls.wrQLenPdf::48                      0                       # What write queue length does an incoming req see
system.mem_ctrls.wrQLenPdf::49                      0                       # What write queue length does an incoming req see
system.mem_ctrls.wrQLenPdf::50                      0                       # What write queue length does an incoming req see
system.mem_ctrls.wrQLenPdf::51                      0                       # What write queue length does an incoming req see
system.mem_ctrls.wrQLenPdf::52                      0                       # What write queue length does an incoming req see
system.mem_ctrls.wrQLenPdf::53                      0                       # What write queue length does an incoming req see
system.mem_ctrls.wrQLenPdf::54                      0                       # What write queue length does an incoming req see
system.mem_ctrls.wrQLenPdf::55                      0                       # What write queue length does an incoming req see
system.mem_ctrls.wrQLenPdf::56                      0                       # What write queue length does an incoming req see
system.mem_ctrls.wrQLenPdf::57                      0                       # What write queue length does an incoming req see
system.mem_ctrls.wrQLenPdf::58                      0                       # What write queue length does an incoming req see
system.mem_ctrls.wrQLenPdf::59                      0                       # What write queue length does an incoming req see
system.mem_ctrls.wrQLenPdf::60                      0                       # What write queue length does an incoming req see
system.mem_ctrls.wrQLenPdf::61                      0                       # What write queue length does an incoming req see
system.mem_ctrls.wrQLenPdf::62                      0                       # What write queue length does an incoming req see
system.mem_ctrls.wrQLenPdf::63                      0                       # What write queue length does an incoming req see
system.mem_ctrls.bytesPerActivate::samples        97398                       # Bytes accessed per row activation
system.mem_ctrls.bytesPerActivate::mean    122.742561                       # Bytes accessed per row activation
system.mem_ctrls.bytesPerActivate::gmean   105.705895                       # Bytes accessed per row activation
system.mem_ctrls.bytesPerActivate::stdev    74.085288                       # Bytes accessed per row activation
system.mem_ctrls.bytesPerActivate::0-127        45731     46.95%     46.95% # Bytes accessed per row activation
system.mem_ctrls.bytesPerActivate::128-255        42078     43.20%     90.15% # Bytes accessed per row activation
system.mem_ctrls.bytesPerActivate::256-383         8343      8.57%     98.72% # Bytes accessed per row activation
system.mem_ctrls.bytesPerActivate::384-511         1074      1.10%     99.82% # Bytes accessed per row activation
system.mem_ctrls.bytesPerActivate::512-639          144      0.15%     99.97% # Bytes accessed per row activation
system.mem_ctrls.bytesPerActivate::640-767           17      0.02%     99.99% # Bytes accessed per row activation
system.mem_ctrls.bytesPerActivate::768-895            7      0.01%    100.00% # Bytes accessed per row activation
system.mem_ctrls.bytesPerActivate::1024-1151            4      0.00%    100.00% # Bytes accessed per row activation
system.mem_ctrls.bytesPerActivate::total        97398                       # Bytes accessed per row activation
system.mem_ctrls.rdPerTurnAround::samples           20                       # Reads before turning the bus around for writes
system.mem_ctrls.rdPerTurnAround::mean    9089.600000                       # Reads before turning the bus around for writes
system.mem_ctrls.rdPerTurnAround::gmean   8868.589620                       # Reads before turning the bus around for writes
system.mem_ctrls.rdPerTurnAround::stdev   2053.283799                       # Reads before turning the bus around for writes
system.mem_ctrls.rdPerTurnAround::5120-5631            1      5.00%      5.00% # Reads before turning the bus around for writes
system.mem_ctrls.rdPerTurnAround::5632-6143            1      5.00%     10.00% # Reads before turning the bus around for writes
system.mem_ctrls.rdPerTurnAround::6144-6655            1      5.00%     15.00% # Reads before turning the bus around for writes
system.mem_ctrls.rdPerTurnAround::7168-7679            2     10.00%     25.00% # Reads before turning the bus around for writes
system.mem_ctrls.rdPerTurnAround::7680-8191            1      5.00%     30.00% # Reads before turning the bus around for writes
system.mem_ctrls.rdPerTurnAround::8192-8703            3     15.00%     45.00% # Reads before turning the bus around for writes
system.mem_ctrls.rdPerTurnAround::8704-9215            3     15.00%     60.00% # Reads before turning the bus around for writes
system.mem_ctrls.rdPerTurnAround::9216-9727            2     10.00%     70.00% # Reads before turning the bus around for writes
system.mem_ctrls.rdPerTurnAround::9728-10239            1      5.00%     75.00% # Reads before turning the bus around for writes
system.mem_ctrls.rdPerTurnAround::10752-11263            1      5.00%     80.00% # Reads before turning the bus around for writes
system.mem_ctrls.rdPerTurnAround::11264-11775            1      5.00%     85.00% # Reads before turning the bus around for writes
system.mem_ctrls.rdPerTurnAround::12288-12799            3     15.00%    100.00% # Reads before turning the bus around for writes
system.mem_ctrls.rdPerTurnAround::total            20                       # Reads before turning the bus around for writes
system.mem_ctrls.wrPerTurnAround::samples           20                       # Writes before turning the bus around for reads
system.mem_ctrls.wrPerTurnAround::mean      16.100000                       # Writes before turning the bus around for reads
system.mem_ctrls.wrPerTurnAround::gmean     16.094504                       # Writes before turning the bus around for reads
system.mem_ctrls.wrPerTurnAround::stdev      0.447214                       # Writes before turning the bus around for reads
system.mem_ctrls.wrPerTurnAround::16               19     95.00%     95.00% # Writes before turning the bus around for reads
system.mem_ctrls.wrPerTurnAround::18                1      5.00%    100.00% # Writes before turning the bus around for reads
system.mem_ctrls.wrPerTurnAround::total            20                       # Writes before turning the bus around for reads
system.mem_ctrls.totQLat                   4597987250                       # Total ticks spent queuing
system.mem_ctrls.totMemAccLat              8093962250                       # Total ticks spent from burst creation until serviced by the DRAM
system.mem_ctrls.totBusLat                  932260000                       # Total ticks spent in databus transfers
system.mem_ctrls.avgQLat                     24660.43                       # Average queueing delay per DRAM burst
system.mem_ctrls.avgBusLat                    5000.00                       # Average bus latency per DRAM burst
system.mem_ctrls.avgMemAccLat                43410.43                       # Average memory access latency per DRAM burst
system.mem_ctrls.avgRdBW                       781.60                       # Average DRAM read bandwidth in MiByte/s
system.mem_ctrls.avgWrBW                         1.35                       # Average achieved write bandwidth in MiByte/s
system.mem_ctrls.avgRdBWSys                    781.80                       # Average system read bandwidth in MiByte/s
system.mem_ctrls.avgWrBWSys                      1.39                       # Average system write bandwidth in MiByte/s
system.mem_ctrls.peakBW                      12800.00                       # Theoretical peak bandwidth in MiByte/s
system.mem_ctrls.busUtil                         6.12                       # Data bus utilization in percentage
system.mem_ctrls.busUtilRead                     6.11                       # Data bus utilization in percentage for reads
system.mem_ctrls.busUtilWrite                    0.01                       # Data bus utilization in percentage for writes
system.mem_ctrls.avgRdQLen                       1.31                       # Average read queue length when enqueuing
system.mem_ctrls.avgWrQLen                      25.38                       # Average write queue length when enqueuing
system.mem_ctrls.readRowHits                    89112                       # Number of row buffer hits during reads
system.mem_ctrls.writeRowHits                     272                       # Number of row buffer hits during writes
system.mem_ctrls.readRowHitRate                 47.79                       # Row buffer hit rate for reads
system.mem_ctrls.writeRowHitRate                81.93                       # Row buffer hit rate for writes
system.mem_ctrls.avgGap                      81716.37                       # Average gap between requests
system.mem_ctrls.pageHitRate                    47.85                       # Row buffer hit rate, read and write combined
system.mem_ctrls_0.actEnergy                349574400                       # Energy for activate commands per rank (pJ)
system.mem_ctrls_0.preEnergy                185833560                       # Energy for precharge commands per rank (pJ)
system.mem_ctrls_0.readEnergy               669289320                       # Energy for read commands per rank (pJ)
system.mem_ctrls_0.writeEnergy                1205820                       # Energy for write commands per rank (pJ)
system.mem_ctrls_0.refreshEnergy         1206538320.000000                       # Energy for refresh commands per rank (pJ)
system.mem_ctrls_0.actBackEnergy           1598582100                       # Energy for active background per rank (pJ)
system.mem_ctrls_0.preBackEnergy             24810240                       # Energy for precharge background per rank (pJ)
system.mem_ctrls_0.actPowerDownEnergy      5174901180                       # Energy for active power-down per rank (pJ)
system.mem_ctrls_0.prePowerDownEnergy       133054080                       # Energy for precharge power-down per rank (pJ)
system.mem_ctrls_0.selfRefreshEnergy     1649280.000000                       # Energy for self refresh per rank (pJ)
system.mem_ctrls_0.totalEnergy             9345438300                       # Total energy per rank (pJ)
system.mem_ctrls_0.averagePower            612.119451                       # Core power per rank (mW)
system.mem_ctrls_0.totalIdleTime          11696245250                       # Total Idle time Per DRAM Rank
system.mem_ctrls_0.memoryStateTime::IDLE     10213500                       # Time in different power states
system.mem_ctrls_0.memoryStateTime::REF     510216875                       # Time in different power states
system.mem_ctrls_0.memoryStateTime::SREF      2269750                       # Time in different power states
system.mem_ctrls_0.memoryStateTime::PRE_PDN    346235500                       # Time in different power states
system.mem_ctrls_0.memoryStateTime::ACT    3050668500                       # Time in different power states
system.mem_ctrls_0.memoryStateTime::ACT_PDN  11347740000                       # Time in different power states
system.mem_ctrls_1.actEnergy                345790200                       # Energy for activate commands per rank (pJ)
system.mem_ctrls_1.preEnergy                183791850                       # Energy for precharge commands per rank (pJ)
system.mem_ctrls_1.readEnergy               661977960                       # Energy for read commands per rank (pJ)
system.mem_ctrls_1.writeEnergy                 475020                       # Energy for write commands per rank (pJ)
system.mem_ctrls_1.refreshEnergy         1204694400.000000                       # Energy for refresh commands per rank (pJ)
system.mem_ctrls_1.actBackEnergy           1585032630                       # Energy for active background per rank (pJ)
system.mem_ctrls_1.preBackEnergy             24384000                       # Energy for precharge background per rank (pJ)
system.mem_ctrls_1.actPowerDownEnergy      5219562960                       # Energy for active power-down per rank (pJ)
system.mem_ctrls_1.prePowerDownEnergy       104414880                       # Energy for precharge power-down per rank (pJ)
system.mem_ctrls_1.selfRefreshEnergy          2849340                       # Energy for self refresh per rank (pJ)
system.mem_ctrls_1.totalEnergy             9332973240                       # Total energy per rank (pJ)
system.mem_ctrls_1.averagePower            611.302998                       # Core power per rank (mW)
system.mem_ctrls_1.totalIdleTime          11727686000                       # Total Idle time Per DRAM Rank
system.mem_ctrls_1.memoryStateTime::IDLE     10266000                       # Time in different power states
system.mem_ctrls_1.memoryStateTime::REF     509606000                       # Time in different power states
system.mem_ctrls_1.memoryStateTime::SREF      9571500                       # Time in different power states
system.mem_ctrls_1.memoryStateTime::PRE_PDN    272275500                       # Time in different power states
system.mem_ctrls_1.memoryStateTime::ACT    3019784750                       # Time in different power states
system.mem_ctrls_1.memoryStateTime::ACT_PDN  11445840375                       # Time in different power states
system.pwrStateResidencyTicks::UNDEFINED  15267344125                       # Cumulative time (in ticks) in various power states
system.cpu0.branchPred.lookups                1805064                       # Number of BP lookups
system.cpu0.branchPred.condPredicted          1805064                       # Number of conditional branches predicted
system.cpu0.branchPred.condIncorrect            78686                       # Number of conditional branches incorrect
system.cpu0.branchPred.BTBLookups             1466647                       # Number of BTB lookups
system.cpu0.branchPred.BTBHits                      0                       # Number of BTB hits
system.cpu0.branchPred.BTBCorrect                   0                       # Number of correct BTB predictions (this stat may not work properly.
system.cpu0.branchPred.BTBHitPct             0.000000                       # BTB Hit Percentage
system.cpu0.branchPred.usedRAS                  54242                       # Number of times the RAS was used to get a target.
system.cpu0.branchPred.RASInCorrect              8412                       # Number of incorrect RAS predictions.
system.cpu0.branchPred.indirectLookups        1466647                       # Number of indirect predictor lookups.
system.cpu0.branchPred.indirectHits            755094                       # Number of indirect target hits.
system.cpu0.branchPred.indirectMisses          711553                       # Number of indirect misses.
system.cpu0.branchPredindirectMispredicted        25060                       # Number of mispredicted indirect branches.
system.cpu_voltage_domain.voltage                   1                       # Voltage in Volts
system.cpu_clk_domain.clock                       500                       # Clock period in ticks
system.cpu0.dtb.walker.pwrStateResidencyTicks::UNDEFINED  15267344125                       # Cumulative time (in ticks) in various power states
system.cpu0.dtb.rdAccesses                     865330                       # TLB accesses on read requests
system.cpu0.dtb.wrAccesses                      54533                       # TLB accesses on write requests
system.cpu0.dtb.rdMisses                       173077                       # TLB misses on read requests
system.cpu0.dtb.wrMisses                         1015                       # TLB misses on write requests
system.cpu0.apic_clk_domain.clock                8000                       # Clock period in ticks
system.cpu0.interrupts.pwrStateResidencyTicks::UNDEFINED  15267344125                       # Cumulative time (in ticks) in various power states
system.cpu0.itb.walker.pwrStateResidencyTicks::UNDEFINED  15267344125                       # Cumulative time (in ticks) in various power states
system.cpu0.itb.rdAccesses                          0                       # TLB accesses on read requests
system.cpu0.itb.wrAccesses                    1472565                       # TLB accesses on write requests
system.cpu0.itb.rdMisses                            0                       # TLB misses on read requests
system.cpu0.itb.wrMisses                         8219                       # TLB misses on write requests
system.cpu0.workload.numSyscalls                    0                       # Number of system calls
system.cpu0.pwrStateResidencyTicks::ON    15267344125                       # Cumulative time (in ticks) in various power states
system.cpu0.numCycles                        30534688                       # number of cpu cycles simulated
system.cpu0.numWorkItemsStarted                     0                       # number of work items this cpu started
system.cpu0.numWorkItemsCompleted                   0                       # number of work items this cpu completed
system.cpu0.fetch.icacheStallCycles           1505936                       # Number of cycles fetch is stalled on an Icache miss
system.cpu0.fetch.Insts                       5262600                       # Number of instructions fetch has processed
system.cpu0.fetch.Branches                    1805064                       # Number of branches that fetch encountered
system.cpu0.fetch.predictedBranches            809336                       # Number of branches that fetch has predicted taken
system.cpu0.fetch.Cycles                     28775444                       # Number of cycles fetch has run and was not squashing or blocked
system.cpu0.fetch.SquashCycles                 162566                       # Number of cycles fetch has spent squashing
system.cpu0.fetch.TlbCycles                      4595                       # Number of cycles fetch has spent waiting for tlb
system.cpu0.fetch.MiscStallCycles                1691                       # Number of cycles fetch has spent waiting on interrupts, or bad addresses, or out of MSHRs
system.cpu0.fetch.PendingTrapStallCycles        78021                       # Number of stall cycles due to pending traps
system.cpu0.fetch.CacheLines                  1464346                       # Number of cache lines fetched
system.cpu0.fetch.IcacheSquashes                 8799                       # Number of outstanding Icache misses that were squashed
system.cpu0.fetch.ItlbSquashes                     15                       # Number of outstanding ITLB misses that were squashed
system.cpu0.fetch.rateDist::samples          30446970                       # Number of instructions fetched each cycle (Total)
system.cpu0.fetch.rateDist::mean             0.348224                       # Number of instructions fetched each cycle (Total)
system.cpu0.fetch.rateDist::stdev            1.483245                       # Number of instructions fetched each cycle (Total)
system.cpu0.fetch.rateDist::underflows              0      0.00%      0.00% # Number of instructions fetched each cycle (Total)
system.cpu0.fetch.rateDist::0                28408064     93.30%     93.30% # Number of instructions fetched each cycle (Total)
system.cpu0.fetch.rateDist::1                   24701      0.08%     93.38% # Number of instructions fetched each cycle (Total)
system.cpu0.fetch.rateDist::2                  726729      2.39%     95.77% # Number of instructions fetched each cycle (Total)
system.cpu0.fetch.rateDist::3                   29740      0.10%     95.87% # Number of instructions fetched each cycle (Total)
system.cpu0.fetch.rateDist::4                  143421      0.47%     96.34% # Number of instructions fetched each cycle (Total)
system.cpu0.fetch.rateDist::5                   79105      0.26%     96.60% # Number of instructions fetched each cycle (Total)
system.cpu0.fetch.rateDist::6                   94630      0.31%     96.91% # Number of instructions fetched each cycle (Total)
system.cpu0.fetch.rateDist::7                   26645      0.09%     97.00% # Number of instructions fetched each cycle (Total)
system.cpu0.fetch.rateDist::8                  913935      3.00%    100.00% # Number of instructions fetched each cycle (Total)
system.cpu0.fetch.rateDist::overflows               0      0.00%    100.00% # Number of instructions fetched each cycle (Total)
system.cpu0.fetch.rateDist::min_value               0                       # Number of instructions fetched each cycle (Total)
system.cpu0.fetch.rateDist::max_value               8                       # Number of instructions fetched each cycle (Total)
system.cpu0.fetch.rateDist::total            30446970                       # Number of instructions fetched each cycle (Total)
system.cpu0.fetch.branchRate                 0.059115                       # Number of branch fetches per cycle
system.cpu0.fetch.rate                       0.172348                       # Number of inst fetches per cycle
system.cpu0.decode.IdleCycles                  763332                       # Number of cycles decode is idle
system.cpu0.decode.BlockedCycles             28267714                       # Number of cycles decode is blocked
system.cpu0.decode.RunCycles                   983607                       # Number of cycles decode is running
system.cpu0.decode.UnblockCycles               351034                       # Number of cycles decode is unblocking
system.cpu0.decode.SquashCycles                 81283                       # Number of cycles decode is squashing
system.cpu0.decode.DecodedInsts               8680730                       # Number of instructions handled by decode
system.cpu0.rename.SquashCycles                 81283                       # Number of cycles rename is squashing
system.cpu0.rename.IdleCycles                  874528                       # Number of cycles rename is idle
system.cpu0.rename.BlockCycles               26768764                       # Number of cycles rename is blocking
system.cpu0.rename.serializeStallCycles         10498                       # count of cycles rename stalled for serializing inst
system.cpu0.rename.RunCycles                  1139133                       # Number of cycles rename is running
system.cpu0.rename.UnblockCycles              1572764                       # Number of cycles rename is unblocking
system.cpu0.rename.RenamedInsts               8318293                       # Number of instructions processed by rename
system.cpu0.rename.ROBFullEvents               100620                       # Number of times rename has blocked due to ROB full
system.cpu0.rename.IQFullEvents               1163182                       # Number of times rename has blocked due to IQ full
system.cpu0.rename.LQFullEvents                368291                       # Number of times rename has blocked due to LQ full
system.cpu0.rename.SQFullEvents                  1331                       # Number of times rename has blocked due to SQ full
system.cpu0.rename.RenamedOperands            9913292                       # Number of destination operands rename has renamed
system.cpu0.rename.RenameLookups             23103927                       # Number of register rename lookups that rename has made
system.cpu0.rename.int_rename_lookups        10905649                       # Number of integer rename lookups
system.cpu0.rename.fp_rename_lookups            34491                       # Number of floating rename lookups
system.cpu0.rename.CommittedMaps              3375016                       # Number of HB maps that are committed
system.cpu0.rename.UndoneMaps                 6538276                       # Number of HB maps that are undone due to squashing
system.cpu0.rename.serializingInsts               318                       # count of serializing insts renamed
system.cpu0.rename.tempSerializingInsts           376                       # count of temporary serializing insts renamed
system.cpu0.rename.skidInsts                  2238177                       # count of insts added to the skid buffer
system.cpu0.memDep0.insertedLoads             1513370                       # Number of loads inserted to the mem dependence unit.
system.cpu0.memDep0.insertedStores              80093                       # Number of stores inserted to the mem dependence unit.
system.cpu0.memDep0.conflictingLoads             4561                       # Number of conflicting loads.
system.cpu0.memDep0.conflictingStores            4542                       # Number of conflicting stores.
system.cpu0.iq.iqInstsAdded                   7897688                       # Number of instructions added to the IQ (excludes non-spec)
system.cpu0.iq.iqNonSpecInstsAdded               4625                       # Number of non-speculative instructions added to the IQ
system.cpu0.iq.iqInstsIssued                  5654474                       # Number of instructions issued
system.cpu0.iq.iqSquashedInstsIssued             6133                       # Number of squashed instructions issued
system.cpu0.iq.iqSquashedInstsExamined        5085796                       # Number of squashed instructions iterated over during squash; mainly for profiling
system.cpu0.iq.iqSquashedOperandsExamined     10376518                       # Number of squashed operands that are examined and possibly removed from graph
system.cpu0.iq.iqSquashedNonSpecRemoved          4625                       # Number of squashed non-spec instructions that were removed
system.cpu0.iq.issued_per_cycle::samples     30446970                       # Number of insts issued each cycle
system.cpu0.iq.issued_per_cycle::mean        0.185715                       # Number of insts issued each cycle
system.cpu0.iq.issued_per_cycle::stdev       0.782316                       # Number of insts issued each cycle
system.cpu0.iq.issued_per_cycle::underflows            0      0.00%      0.00% # Number of insts issued each cycle
system.cpu0.iq.issued_per_cycle::0           28121165     92.36%     92.36% # Number of insts issued each cycle
system.cpu0.iq.issued_per_cycle::1             927082      3.04%     95.41% # Number of insts issued each cycle
system.cpu0.iq.issued_per_cycle::2             489707      1.61%     97.01% # Number of insts issued each cycle
system.cpu0.iq.issued_per_cycle::3             329220      1.08%     98.10% # Number of insts issued each cycle
system.cpu0.iq.issued_per_cycle::4             342541      1.13%     99.22% # Number of insts issued each cycle
system.cpu0.iq.issued_per_cycle::5             103161      0.34%     99.56% # Number of insts issued each cycle
system.cpu0.iq.issued_per_cycle::6              84841      0.28%     99.84% # Number of insts issued each cycle
system.cpu0.iq.issued_per_cycle::7              28721      0.09%     99.93% # Number of insts issued each cycle
system.cpu0.iq.issued_per_cycle::8              20532      0.07%    100.00% # Number of insts issued each cycle
system.cpu0.iq.issued_per_cycle::overflows            0      0.00%    100.00% # Number of insts issued each cycle
system.cpu0.iq.issued_per_cycle::min_value            0                       # Number of insts issued each cycle
system.cpu0.iq.issued_per_cycle::max_value            8                       # Number of insts issued each cycle
system.cpu0.iq.issued_per_cycle::total       30446970                       # Number of insts issued each cycle
system.cpu0.iq.fu_full::No_OpClass                  0      0.00%      0.00% # attempts to use FU when none available
system.cpu0.iq.fu_full::IntAlu                  10620     65.63%     65.63% # attempts to use FU when none available
system.cpu0.iq.fu_full::IntMult                     0      0.00%     65.63% # attempts to use FU when none available
system.cpu0.iq.fu_full::IntDiv                      0      0.00%     65.63% # attempts to use FU when none available
system.cpu0.iq.fu_full::FloatAdd                 1006      6.22%     71.85% # attempts to use FU when none available
system.cpu0.iq.fu_full::FloatCmp                    0      0.00%     71.85% # attempts to use FU when none available
system.cpu0.iq.fu_full::FloatCvt                    0      0.00%     71.85% # attempts to use FU when none available
system.cpu0.iq.fu_full::FloatMult                   0      0.00%     71.85% # attempts to use FU when none available
system.cpu0.iq.fu_full::FloatMultAcc                0      0.00%     71.85% # attempts to use FU when none available
system.cpu0.iq.fu_full::FloatDiv                    0      0.00%     71.85% # attempts to use FU when none available
system.cpu0.iq.fu_full::FloatMisc                   0      0.00%     71.85% # attempts to use FU when none available
system.cpu0.iq.fu_full::FloatSqrt                   0      0.00%     71.85% # attempts to use FU when none available
system.cpu0.iq.fu_full::SimdAdd                     0      0.00%     71.85% # attempts to use FU when none available
system.cpu0.iq.fu_full::SimdAddAcc                  0      0.00%     71.85% # attempts to use FU when none available
system.cpu0.iq.fu_full::SimdAlu                     0      0.00%     71.85% # attempts to use FU when none available
system.cpu0.iq.fu_full::SimdCmp                     0      0.00%     71.85% # attempts to use FU when none available
system.cpu0.iq.fu_full::SimdCvt                     0      0.00%     71.85% # attempts to use FU when none available
system.cpu0.iq.fu_full::SimdMisc                    0      0.00%     71.85% # attempts to use FU when none available
system.cpu0.iq.fu_full::SimdMult                    0      0.00%     71.85% # attempts to use FU when none available
system.cpu0.iq.fu_full::SimdMultAcc                 0      0.00%     71.85% # attempts to use FU when none available
system.cpu0.iq.fu_full::SimdShift                   0      0.00%     71.85% # attempts to use FU when none available
system.cpu0.iq.fu_full::SimdShiftAcc                0      0.00%     71.85% # attempts to use FU when none available
system.cpu0.iq.fu_full::SimdSqrt                    0      0.00%     71.85% # attempts to use FU when none available
system.cpu0.iq.fu_full::SimdFloatAdd                0      0.00%     71.85% # attempts to use FU when none available
system.cpu0.iq.fu_full::SimdFloatAlu                0      0.00%     71.85% # attempts to use FU when none available
system.cpu0.iq.fu_full::SimdFloatCmp                0      0.00%     71.85% # attempts to use FU when none available
system.cpu0.iq.fu_full::SimdFloatCvt                0      0.00%     71.85% # attempts to use FU when none available
system.cpu0.iq.fu_full::SimdFloatDiv                0      0.00%     71.85% # attempts to use FU when none available
system.cpu0.iq.fu_full::SimdFloatMisc               0      0.00%     71.85% # attempts to use FU when none available
system.cpu0.iq.fu_full::SimdFloatMult               0      0.00%     71.85% # attempts to use FU when none available
system.cpu0.iq.fu_full::SimdFloatMultAcc            0      0.00%     71.85% # attempts to use FU when none available
system.cpu0.iq.fu_full::SimdFloatSqrt               0      0.00%     71.85% # attempts to use FU when none available
system.cpu0.iq.fu_full::MemRead                  4148     25.63%     97.48% # attempts to use FU when none available
system.cpu0.iq.fu_full::MemWrite                  213      1.32%     98.79% # attempts to use FU when none available
system.cpu0.iq.fu_full::FloatMemRead              125      0.77%     99.57% # attempts to use FU when none available
system.cpu0.iq.fu_full::FloatMemWrite              70      0.43%    100.00% # attempts to use FU when none available
system.cpu0.iq.fu_full::IprAccess                   0      0.00%    100.00% # attempts to use FU when none available
system.cpu0.iq.fu_full::InstPrefetch                0      0.00%    100.00% # attempts to use FU when none available
system.cpu0.iq.FU_type_0::No_OpClass            21096      0.37%      0.37% # Type of FU issued
system.cpu0.iq.FU_type_0::IntAlu              4644603     82.14%     82.51% # Type of FU issued
system.cpu0.iq.FU_type_0::IntMult                1245      0.02%     82.54% # Type of FU issued
system.cpu0.iq.FU_type_0::IntDiv                 8792      0.16%     82.69% # Type of FU issued
system.cpu0.iq.FU_type_0::FloatAdd              12605      0.22%     82.91% # Type of FU issued
system.cpu0.iq.FU_type_0::FloatCmp                  0      0.00%     82.91% # Type of FU issued
system.cpu0.iq.FU_type_0::FloatCvt                  0      0.00%     82.91% # Type of FU issued
system.cpu0.iq.FU_type_0::FloatMult                 0      0.00%     82.91% # Type of FU issued
system.cpu0.iq.FU_type_0::FloatMultAcc              0      0.00%     82.91% # Type of FU issued
system.cpu0.iq.FU_type_0::FloatDiv                  0      0.00%     82.91% # Type of FU issued
system.cpu0.iq.FU_type_0::FloatMisc                 0      0.00%     82.91% # Type of FU issued
system.cpu0.iq.FU_type_0::FloatSqrt                 0      0.00%     82.91% # Type of FU issued
system.cpu0.iq.FU_type_0::SimdAdd                   0      0.00%     82.91% # Type of FU issued
system.cpu0.iq.FU_type_0::SimdAddAcc                0      0.00%     82.91% # Type of FU issued
system.cpu0.iq.FU_type_0::SimdAlu                   0      0.00%     82.91% # Type of FU issued
system.cpu0.iq.FU_type_0::SimdCmp                   0      0.00%     82.91% # Type of FU issued
system.cpu0.iq.FU_type_0::SimdCvt                   0      0.00%     82.91% # Type of FU issued
system.cpu0.iq.FU_type_0::SimdMisc                  0      0.00%     82.91% # Type of FU issued
system.cpu0.iq.FU_type_0::SimdMult                  0      0.00%     82.91% # Type of FU issued
system.cpu0.iq.FU_type_0::SimdMultAcc               0      0.00%     82.91% # Type of FU issued
system.cpu0.iq.FU_type_0::SimdShift                 0      0.00%     82.91% # Type of FU issued
system.cpu0.iq.FU_type_0::SimdShiftAcc              0      0.00%     82.91% # Type of FU issued
system.cpu0.iq.FU_type_0::SimdSqrt                  0      0.00%     82.91% # Type of FU issued
system.cpu0.iq.FU_type_0::SimdFloatAdd              0      0.00%     82.91% # Type of FU issued
system.cpu0.iq.FU_type_0::SimdFloatAlu              0      0.00%     82.91% # Type of FU issued
system.cpu0.iq.FU_type_0::SimdFloatCmp              0      0.00%     82.91% # Type of FU issued
system.cpu0.iq.FU_type_0::SimdFloatCvt              0      0.00%     82.91% # Type of FU issued
system.cpu0.iq.FU_type_0::SimdFloatDiv              0      0.00%     82.91% # Type of FU issued
system.cpu0.iq.FU_type_0::SimdFloatMisc             0      0.00%     82.91% # Type of FU issued
system.cpu0.iq.FU_type_0::SimdFloatMult             0      0.00%     82.91% # Type of FU issued
system.cpu0.iq.FU_type_0::SimdFloatMultAcc            0      0.00%     82.91% # Type of FU issued
system.cpu0.iq.FU_type_0::SimdFloatSqrt             0      0.00%     82.91% # Type of FU issued
system.cpu0.iq.FU_type_0::MemRead              905018     16.01%     98.92% # Type of FU issued
system.cpu0.iq.FU_type_0::MemWrite              58368      1.03%     99.95% # Type of FU issued
system.cpu0.iq.FU_type_0::FloatMemRead           2462      0.04%     99.99% # Type of FU issued
system.cpu0.iq.FU_type_0::FloatMemWrite           285      0.01%    100.00% # Type of FU issued
system.cpu0.iq.FU_type_0::IprAccess                 0      0.00%    100.00% # Type of FU issued
system.cpu0.iq.FU_type_0::InstPrefetch              0      0.00%    100.00% # Type of FU issued
system.cpu0.iq.FU_type_0::total               5654474                       # Type of FU issued
system.cpu0.iq.rate                          0.185182                       # Inst issue rate
system.cpu0.iq.fu_busy_cnt                      16182                       # FU busy when requested
system.cpu0.iq.fu_busy_rate                  0.002862                       # FU busy rate (busy events/executed inst)
system.cpu0.iq.int_inst_queue_reads          41746054                       # Number of integer instruction queue reads
system.cpu0.iq.int_inst_queue_writes         12957732                       # Number of integer instruction queue writes
system.cpu0.iq.int_inst_queue_wakeup_accesses      5414638                       # Number of integer instruction queue wakeup accesses
system.cpu0.iq.fp_inst_queue_reads              32179                       # Number of floating instruction queue reads
system.cpu0.iq.fp_inst_queue_writes             30380                       # Number of floating instruction queue writes
system.cpu0.iq.fp_inst_queue_wakeup_accesses        13907                       # Number of floating instruction queue wakeup accesses
system.cpu0.iq.vec_inst_queue_reads                 0                       # Number of vector instruction queue reads
system.cpu0.iq.vec_inst_queue_writes                0                       # Number of vector instruction queue writes
system.cpu0.iq.vec_inst_queue_wakeup_accesses            0                       # Number of vector instruction queue wakeup accesses
system.cpu0.iq.int_alu_accesses               5632977                       # Number of integer alu accesses
system.cpu0.iq.fp_alu_accesses                  16583                       # Number of floating point alu accesses
system.cpu0.iq.vec_alu_accesses                     0                       # Number of vector alu accesses
system.cpu0.iew.lsq.thread0.forwLoads            4039                       # Number of loads that had data forwarded from stores
system.cpu0.iew.lsq.thread0.invAddrLoads            0                       # Number of loads ignored due to an invalid address
system.cpu0.iew.lsq.thread0.squashedLoads       973570                       # Number of loads squashed
system.cpu0.iew.lsq.thread0.ignoredResponses          171                       # Number of memory responses ignored because the instruction is squashed
system.cpu0.iew.lsq.thread0.memOrderViolation            5                       # Number of memory ordering violations
system.cpu0.iew.lsq.thread0.squashedStores        55131                       # Number of stores squashed
system.cpu0.iew.lsq.thread0.invAddrSwpfs            0                       # Number of software prefetches ignored due to an invalid address
system.cpu0.iew.lsq.thread0.blockedLoads            0                       # Number of blocked loads due to partial load-store forwarding
system.cpu0.iew.lsq.thread0.rescheduledLoads           27                       # Number of loads that were rescheduled
system.cpu0.iew.lsq.thread0.cacheBlocked         1646                       # Number of times an access to memory failed due to the cache being blocked
system.cpu0.iew.iewIdleCycles                       0                       # Number of cycles IEW is idle
system.cpu0.iew.iewSquashCycles                 81283                       # Number of cycles IEW is squashing
system.cpu0.iew.iewBlockCycles               24519780                       # Number of cycles IEW is blocking
system.cpu0.iew.iewUnblockCycles               313811                       # Number of cycles IEW is unblocking
system.cpu0.iew.iewDispatchedInsts            7902313                       # Number of instructions dispatched to IQ
system.cpu0.iew.iewDispSquashedInsts             5891                       # Number of squashed instructions skipped by dispatch
system.cpu0.iew.iewDispLoadInsts              1513370                       # Number of dispatched load instructions
system.cpu0.iew.iewDispStoreInsts               80093                       # Number of dispatched store instructions
system.cpu0.iew.iewDispNonSpecInsts              1741                       # Number of dispatched non-speculative instructions
system.cpu0.iew.iewIQFullEvents                 22706                       # Number of times the IQ has become full, causing a stall
system.cpu0.iew.iewLSQFullEvents                92041                       # Number of times the LSQ has become full, causing a stall
system.cpu0.iew.memOrderViolationEvents             5                       # Number of memory order violations
system.cpu0.iew.predictedTakenIncorrect         41697                       # Number of branches that were predicted taken incorrectly
system.cpu0.iew.predictedNotTakenIncorrect        47768                       # Number of branches that were predicted not taken incorrectly
system.cpu0.iew.branchMispredicts               89465                       # Number of branch mispredicts detected at execute
system.cpu0.iew.iewExecutedInsts              5548680                       # Number of executed instructions
system.cpu0.iew.iewExecLoadInsts               865062                       # Number of load instructions executed
system.cpu0.iew.iewExecSquashedInsts           105794                       # Number of squashed instructions skipped in execute
system.cpu0.iew.exec_swp                            0                       # number of swp insts executed
system.cpu0.iew.exec_nop                            0                       # number of nop insts executed
system.cpu0.iew.exec_refs                      919573                       # number of memory reference insts executed
system.cpu0.iew.exec_branches                  663024                       # Number of branches executed
system.cpu0.iew.exec_stores                     54511                       # Number of stores executed
system.cpu0.iew.exec_rate                    0.181717                       # Inst execution rate
system.cpu0.iew.wb_sent                       5448291                       # cumulative count of insts sent to commit
system.cpu0.iew.wb_count                      5428545                       # cumulative count of insts written-back
system.cpu0.iew.wb_producers                  4009558                       # num instructions producing a value
system.cpu0.iew.wb_consumers                  6313254                       # num instructions consuming a value
system.cpu0.iew.wb_rate                      0.177783                       # insts written-back per cycle
system.cpu0.iew.wb_fanout                    0.635102                       # average fanout of values written-back
system.cpu0.commit.commitSquashedInsts        5086899                       # The number of squashed insts skipped by commit
system.cpu0.commit.branchMispredicts            81281                       # The number of times a branch was mispredicted
system.cpu0.commit.committed_per_cycle::samples     29720342                       # Number of insts commited each cycle
system.cpu0.commit.committed_per_cycle::mean     0.094767                       # Number of insts commited each cycle
system.cpu0.commit.committed_per_cycle::stdev     0.562647                       # Number of insts commited each cycle
system.cpu0.commit.committed_per_cycle::underflows            0      0.00%      0.00% # Number of insts commited each cycle
system.cpu0.commit.committed_per_cycle::0     28487247     95.85%     95.85% # Number of insts commited each cycle
system.cpu0.commit.committed_per_cycle::1       572634      1.93%     97.78% # Number of insts commited each cycle
system.cpu0.commit.committed_per_cycle::2       134025      0.45%     98.23% # Number of insts commited each cycle
system.cpu0.commit.committed_per_cycle::3       369035      1.24%     99.47% # Number of insts commited each cycle
system.cpu0.commit.committed_per_cycle::4        66804      0.22%     99.70% # Number of insts commited each cycle
system.cpu0.commit.committed_per_cycle::5        35984      0.12%     99.82% # Number of insts commited each cycle
system.cpu0.commit.committed_per_cycle::6         5725      0.02%     99.84% # Number of insts commited each cycle
system.cpu0.commit.committed_per_cycle::7         3862      0.01%     99.85% # Number of insts commited each cycle
system.cpu0.commit.committed_per_cycle::8        45026      0.15%    100.00% # Number of insts commited each cycle
system.cpu0.commit.committed_per_cycle::overflows            0      0.00%    100.00% # Number of insts commited each cycle
system.cpu0.commit.committed_per_cycle::min_value            0                       # Number of insts commited each cycle
system.cpu0.commit.committed_per_cycle::max_value            8                       # Number of insts commited each cycle
system.cpu0.commit.committed_per_cycle::total     29720342                       # Number of insts commited each cycle
system.cpu0.commit.committedInsts             1409703                       # Number of instructions committed
system.cpu0.commit.committedOps               2816517                       # Number of ops (including micro ops) committed
system.cpu0.commit.swp_count                        0                       # Number of s/w prefetches committed
system.cpu0.commit.refs                        564762                       # Number of memory references committed
system.cpu0.commit.loads                       539800                       # Number of loads committed
system.cpu0.commit.membars                          0                       # Number of memory barriers committed
system.cpu0.commit.branches                    513387                       # Number of branches committed
system.cpu0.commit.vec_insts                        0                       # Number of committed Vector instructions.
system.cpu0.commit.fp_insts                      9982                       # Number of committed floating point instructions.
system.cpu0.commit.int_insts                  2806453                       # Number of committed integer instructions.
system.cpu0.commit.function_calls                4400                       # Number of function calls committed.
system.cpu0.commit.op_class_0::No_OpClass         2982      0.11%      0.11% # Class of committed instruction
system.cpu0.commit.op_class_0::IntAlu         2232889     79.28%     79.38% # Class of committed instruction
system.cpu0.commit.op_class_0::IntMult            176      0.01%     79.39% # Class of committed instruction
system.cpu0.commit.op_class_0::IntDiv            7176      0.25%     79.65% # Class of committed instruction
system.cpu0.commit.op_class_0::FloatAdd          8532      0.30%     79.95% # Class of committed instruction
system.cpu0.commit.op_class_0::FloatCmp             0      0.00%     79.95% # Class of committed instruction
system.cpu0.commit.op_class_0::FloatCvt             0      0.00%     79.95% # Class of committed instruction
system.cpu0.commit.op_class_0::FloatMult            0      0.00%     79.95% # Class of committed instruction
system.cpu0.commit.op_class_0::FloatMultAcc            0      0.00%     79.95% # Class of committed instruction
system.cpu0.commit.op_class_0::FloatDiv             0      0.00%     79.95% # Class of committed instruction
system.cpu0.commit.op_class_0::FloatMisc            0      0.00%     79.95% # Class of committed instruction
system.cpu0.commit.op_class_0::FloatSqrt            0      0.00%     79.95% # Class of committed instruction
system.cpu0.commit.op_class_0::SimdAdd              0      0.00%     79.95% # Class of committed instruction
system.cpu0.commit.op_class_0::SimdAddAcc            0      0.00%     79.95% # Class of committed instruction
system.cpu0.commit.op_class_0::SimdAlu              0      0.00%     79.95% # Class of committed instruction
system.cpu0.commit.op_class_0::SimdCmp              0      0.00%     79.95% # Class of committed instruction
system.cpu0.commit.op_class_0::SimdCvt              0      0.00%     79.95% # Class of committed instruction
system.cpu0.commit.op_class_0::SimdMisc             0      0.00%     79.95% # Class of committed instruction
system.cpu0.commit.op_class_0::SimdMult             0      0.00%     79.95% # Class of committed instruction
system.cpu0.commit.op_class_0::SimdMultAcc            0      0.00%     79.95% # Class of committed instruction
system.cpu0.commit.op_class_0::SimdShift            0      0.00%     79.95% # Class of committed instruction
system.cpu0.commit.op_class_0::SimdShiftAcc            0      0.00%     79.95% # Class of committed instruction
system.cpu0.commit.op_class_0::SimdSqrt             0      0.00%     79.95% # Class of committed instruction
system.cpu0.commit.op_class_0::SimdFloatAdd            0      0.00%     79.95% # Class of committed instruction
system.cpu0.commit.op_class_0::SimdFloatAlu            0      0.00%     79.95% # Class of committed instruction
system.cpu0.commit.op_class_0::SimdFloatCmp            0      0.00%     79.95% # Class of committed instruction
system.cpu0.commit.op_class_0::SimdFloatCvt            0      0.00%     79.95% # Class of committed instruction
system.cpu0.commit.op_class_0::SimdFloatDiv            0      0.00%     79.95% # Class of committed instruction
system.cpu0.commit.op_class_0::SimdFloatMisc            0      0.00%     79.95% # Class of committed instruction
system.cpu0.commit.op_class_0::SimdFloatMult            0      0.00%     79.95% # Class of committed instruction
system.cpu0.commit.op_class_0::SimdFloatMultAcc            0      0.00%     79.95% # Class of committed instruction
system.cpu0.commit.op_class_0::SimdFloatSqrt            0      0.00%     79.95% # Class of committed instruction
system.cpu0.commit.op_class_0::MemRead         538350     19.11%     99.06% # Class of committed instruction
system.cpu0.commit.op_class_0::MemWrite         24962      0.89%     99.95% # Class of committed instruction
system.cpu0.commit.op_class_0::FloatMemRead         1450      0.05%    100.00% # Class of committed instruction
system.cpu0.commit.op_class_0::FloatMemWrite            0      0.00%    100.00% # Class of committed instruction
system.cpu0.commit.op_class_0::IprAccess            0      0.00%    100.00% # Class of committed instruction
system.cpu0.commit.op_class_0::InstPrefetch            0      0.00%    100.00% # Class of committed instruction
system.cpu0.commit.op_class_0::total          2816517                       # Class of committed instruction
system.cpu0.commit.bw_lim_events                45026                       # number cycles where commit BW limit reached
system.cpu0.rob.rob_reads                    37578732                       # The number of ROB reads
system.cpu0.rob.rob_writes                   16535135                       # The number of ROB writes
system.cpu0.timesIdled                            771                       # Number of times that the entire CPU went into an idle state and unscheduled itself
system.cpu0.idleCycles                          87718                       # Total number of cycles that the CPU has spent unscheduled due to idling
system.cpu0.committedInsts                    1409703                       # Number of Instructions Simulated
system.cpu0.committedOps                      2816517                       # Number of Ops (including micro ops) Simulated
system.cpu0.cpi                             21.660370                       # CPI: Cycles Per Instruction
system.cpu0.cpi_total                       21.660370                       # CPI: Total CPI of All Threads
system.cpu0.ipc                              0.046167                       # IPC: Instructions Per Cycle
system.cpu0.ipc_total                        0.046167                       # IPC: Total IPC of All Threads
system.cpu0.int_regfile_reads                 5530994                       # number of integer regfile reads
system.cpu0.int_regfile_writes                4716244                       # number of integer regfile writes
system.cpu0.fp_regfile_reads                    24772                       # number of floating regfile reads
system.cpu0.fp_regfile_writes                   12301                       # number of floating regfile writes
system.cpu0.cc_regfile_reads                  3460310                       # number of cc regfile reads
system.cpu0.cc_regfile_writes                 1493489                       # number of cc regfile writes
system.cpu0.misc_regfile_reads                2933055                       # number of misc regfile reads
system.cpu0.dcache.tags.pwrStateResidencyTicks::UNDEFINED  15267344125                       # Cumulative time (in ticks) in various power states
system.cpu0.dcache.tags.replacements           286727                       # number of replacements
system.cpu0.dcache.tags.tagsinuse                1024                       # Cycle average of tags in use
system.cpu0.dcache.tags.total_refs             374190                       # Total number of references to valid blocks.
system.cpu0.dcache.tags.sampled_refs           286727                       # Sample count of references to valid blocks.
system.cpu0.dcache.tags.avg_refs             1.305039                       # Average number of references to valid blocks.
system.cpu0.dcache.tags.warmup_cycle                0                       # Cycle when the warmup percentage was hit.
system.cpu0.dcache.tags.occ_blocks::cpu0.data         1024                       # Average occupied blocks per requestor
system.cpu0.dcache.tags.occ_percent::cpu0.data            1                       # Average percentage of cache occupancy
system.cpu0.dcache.tags.occ_percent::total            1                       # Average percentage of cache occupancy
system.cpu0.dcache.tags.occ_task_id_blocks::1024         1024                       # Occupied blocks per task id
system.cpu0.dcache.tags.age_task_id_blocks_1024::0          375                       # Occupied blocks per task id
system.cpu0.dcache.tags.age_task_id_blocks_1024::1          646                       # Occupied blocks per task id
system.cpu0.dcache.tags.age_task_id_blocks_1024::2            3                       # Occupied blocks per task id
system.cpu0.dcache.tags.occ_task_id_percent::1024            1                       # Percentage of cache occupancy per task id
system.cpu0.dcache.tags.tag_accesses          3812323                       # Number of tag accesses
system.cpu0.dcache.tags.data_accesses         3812323                       # Number of data accesses
system.cpu0.dcache.pwrStateResidencyTicks::UNDEFINED  15267344125                       # Cumulative time (in ticks) in various power states
system.cpu0.dcache.ReadReq_hits::cpu0.data       350437                       # number of ReadReq hits
system.cpu0.dcache.ReadReq_hits::total         350437                       # number of ReadReq hits
system.cpu0.dcache.WriteReq_hits::cpu0.data        23977                       # number of WriteReq hits
system.cpu0.dcache.WriteReq_hits::total         23977                       # number of WriteReq hits
system.cpu0.dcache.demand_hits::cpu0.data       374414                       # number of demand (read+write) hits
system.cpu0.dcache.demand_hits::total          374414                       # number of demand (read+write) hits
system.cpu0.dcache.overall_hits::cpu0.data       374414                       # number of overall hits
system.cpu0.dcache.overall_hits::total         374414                       # number of overall hits
system.cpu0.dcache.ReadReq_misses::cpu0.data       506000                       # number of ReadReq misses
system.cpu0.dcache.ReadReq_misses::total       506000                       # number of ReadReq misses
system.cpu0.dcache.WriteReq_misses::cpu0.data          985                       # number of WriteReq misses
system.cpu0.dcache.WriteReq_misses::total          985                       # number of WriteReq misses
system.cpu0.dcache.demand_misses::cpu0.data       506985                       # number of demand (read+write) misses
system.cpu0.dcache.demand_misses::total        506985                       # number of demand (read+write) misses
system.cpu0.dcache.overall_misses::cpu0.data       506985                       # number of overall misses
system.cpu0.dcache.overall_misses::total       506985                       # number of overall misses
system.cpu0.dcache.ReadReq_miss_latency::cpu0.data  34729064000                       # number of ReadReq miss cycles
system.cpu0.dcache.ReadReq_miss_latency::total  34729064000                       # number of ReadReq miss cycles
system.cpu0.dcache.WriteReq_miss_latency::cpu0.data     35282500                       # number of WriteReq miss cycles
system.cpu0.dcache.WriteReq_miss_latency::total     35282500                       # number of WriteReq miss cycles
system.cpu0.dcache.demand_miss_latency::cpu0.data  34764346500                       # number of demand (read+write) miss cycles
system.cpu0.dcache.demand_miss_latency::total  34764346500                       # number of demand (read+write) miss cycles
system.cpu0.dcache.overall_miss_latency::cpu0.data  34764346500                       # number of overall miss cycles
system.cpu0.dcache.overall_miss_latency::total  34764346500                       # number of overall miss cycles
system.cpu0.dcache.ReadReq_accesses::cpu0.data       856437                       # number of ReadReq accesses(hits+misses)
system.cpu0.dcache.ReadReq_accesses::total       856437                       # number of ReadReq accesses(hits+misses)
system.cpu0.dcache.WriteReq_accesses::cpu0.data        24962                       # number of WriteReq accesses(hits+misses)
system.cpu0.dcache.WriteReq_accesses::total        24962                       # number of WriteReq accesses(hits+misses)
system.cpu0.dcache.demand_accesses::cpu0.data       881399                       # number of demand (read+write) accesses
system.cpu0.dcache.demand_accesses::total       881399                       # number of demand (read+write) accesses
system.cpu0.dcache.overall_accesses::cpu0.data       881399                       # number of overall (read+write) accesses
system.cpu0.dcache.overall_accesses::total       881399                       # number of overall (read+write) accesses
system.cpu0.dcache.ReadReq_miss_rate::cpu0.data     0.590820                       # miss rate for ReadReq accesses
system.cpu0.dcache.ReadReq_miss_rate::total     0.590820                       # miss rate for ReadReq accesses
system.cpu0.dcache.WriteReq_miss_rate::cpu0.data     0.039460                       # miss rate for WriteReq accesses
system.cpu0.dcache.WriteReq_miss_rate::total     0.039460                       # miss rate for WriteReq accesses
system.cpu0.dcache.demand_miss_rate::cpu0.data     0.575205                       # miss rate for demand accesses
system.cpu0.dcache.demand_miss_rate::total     0.575205                       # miss rate for demand accesses
system.cpu0.dcache.overall_miss_rate::cpu0.data     0.575205                       # miss rate for overall accesses
system.cpu0.dcache.overall_miss_rate::total     0.575205                       # miss rate for overall accesses
system.cpu0.dcache.ReadReq_avg_miss_latency::cpu0.data 68634.513834                       # average ReadReq miss latency
system.cpu0.dcache.ReadReq_avg_miss_latency::total 68634.513834                       # average ReadReq miss latency
system.cpu0.dcache.WriteReq_avg_miss_latency::cpu0.data 35819.796954                       # average WriteReq miss latency
system.cpu0.dcache.WriteReq_avg_miss_latency::total 35819.796954                       # average WriteReq miss latency
system.cpu0.dcache.demand_avg_miss_latency::cpu0.data 68570.759490                       # average overall miss latency
system.cpu0.dcache.demand_avg_miss_latency::total 68570.759490                       # average overall miss latency
[...]
system.l2.ReadSharedReq_hits::cpu0.data         99478                       # number of ReadSharedReq hits
system.l2.ReadSharedReq_hits::total             99478                       # number of ReadSharedReq hits
system.l2.demand_hits::cpu0.data               100226                       # number of demand (read+write) hits
system.l2.demand_hits::total                   100226                       # number of demand (read+write) hits
system.l2.overall_hits::cpu0.data              100226                       # number of overall hits
system.l2.overall_hits::total                  100226                       # number of overall hits
system.l2.ReadExReq_misses::cpu0.data             234                       # number of ReadExReq misses
system.l2.ReadExReq_misses::total                 234                       # number of ReadExReq misses
system.l2.ReadSharedReq_misses::cpu0.data       186267                       # number of ReadSharedReq misses
system.l2.ReadSharedReq_misses::total          186267                       # number of ReadSharedReq misses
system.l2.demand_misses::cpu0.data             186501                       # number of demand (read+write) misses
system.l2.demand_misses::total                 186501                       # number of demand (read+write) misses
system.l2.overall_misses::cpu0.data            186501                       # number of overall misses
system.l2.overall_misses::total                186501                       # number of overall misses
system.l2.ReadExReq_miss_latency::cpu0.data     24328500                       # number of ReadExReq miss cycles
system.l2.ReadExReq_miss_latency::total      24328500                       # number of ReadExReq miss cycles
system.l2.ReadSharedReq_miss_latency::cpu0.data  17690842500                       # number of ReadSharedReq miss cycles
system.l2.ReadSharedReq_miss_latency::total  17690842500                       # number of ReadSharedReq miss cycles
system.l2.demand_miss_latency::cpu0.data  17715171000                       # number of demand (read+write) miss cycles
system.l2.demand_miss_latency::total      17715171000                       # number of demand (read+write) miss cycles
system.l2.overall_miss_latency::cpu0.data  17715171000                       # number of overall miss cycles
system.l2.overall_miss_latency::total     17715171000                       # number of overall miss cycles
system.l2.WritebackDirty_accesses::writebacks         2680                       # number of WritebackDirty accesses(hits+misses)
system.l2.WritebackDirty_accesses::total         2680                       # number of WritebackDirty accesses(hits+misses)
system.l2.ReadExReq_accesses::cpu0.data           982                       # number of ReadExReq accesses(hits+misses)
system.l2.ReadExReq_accesses::total               982                       # number of ReadExReq accesses(hits+misses)
system.l2.ReadSharedReq_accesses::cpu0.data       285745                       # number of ReadSharedReq accesses(hits+misses)
system.l2.ReadSharedReq_accesses::total        285745                       # number of ReadSharedReq accesses(hits+misses)
system.l2.demand_accesses::cpu0.data           286727                       # number of demand (read+write) accesses
system.l2.demand_accesses::total               286727                       # number of demand (read+write) accesses
system.l2.overall_accesses::cpu0.data          286727                       # number of overall (read+write) accesses
system.l2.overall_accesses::total              286727                       # number of overall (read+write) accesses
system.l2.ReadExReq_miss_rate::cpu0.data     0.238289                       # miss rate for ReadExReq accesses
system.l2.ReadExReq_miss_rate::total         0.238289                       # miss rate for ReadExReq accesses
system.l2.ReadSharedReq_miss_rate::cpu0.data     0.651864                       # miss rate for ReadSharedReq accesses
system.l2.ReadSharedReq_miss_rate::total     0.651864                       # miss rate for ReadSharedReq accesses
system.l2.demand_miss_rate::cpu0.data        0.650448                       # miss rate for demand accesses
system.l2.demand_miss_rate::total            0.650448                       # miss rate for demand accesses
system.l2.overall_miss_rate::cpu0.data       0.650448                       # miss rate for overall accesses
system.l2.overall_miss_rate::total           0.650448                       # miss rate for overall accesses
system.l2.ReadExReq_avg_miss_latency::cpu0.data 103967.948718                       # average ReadExReq miss latency
system.l2.ReadExReq_avg_miss_latency::total 103967.948718                       # average ReadExReq miss latency
system.l2.ReadSharedReq_avg_miss_latency::cpu0.data 94975.720337                       # average ReadSharedReq miss latency
system.l2.ReadSharedReq_avg_miss_latency::total 94975.720337                       # average ReadSharedReq miss latency
system.l2.demand_avg_miss_latency::cpu0.data 94987.002751                       # average overall miss latency
system.l2.demand_avg_miss_latency::total 94987.002751                       # average overall miss latency
system.l2.overall_avg_miss_latency::cpu0.data 94987.002751                       # average overall miss latency
system.l2.overall_avg_miss_latency::total 94987.002751                       # average overall miss latency
system.l2.blocked_cycles::no_mshrs                  0                       # number of cycles access was blocked
system.l2.blocked_cycles::no_targets                0                       # number of cycles access was blocked
system.l2.blocked::no_mshrs                         0                       # number of cycles access was blocked
system.l2.blocked::no_targets                       0                       # number of cycles access was blocked
system.l2.avg_blocked_cycles::no_mshrs            nan                       # average number of cycles each access was blocked
system.l2.avg_blocked_cycles::no_targets          nan                       # average number of cycles each access was blocked
system.l2.writebacks::writebacks                  332                       # number of writebacks
system.l2.writebacks::total                       332                       # number of writebacks
system.l2.ReadExReq_mshr_misses::cpu0.data          234                       # number of ReadExReq MSHR misses
system.l2.ReadExReq_mshr_misses::total            234                       # number of ReadExReq MSHR misses
system.l2.ReadSharedReq_mshr_misses::cpu0.data       186267                       # number of ReadSharedReq MSHR misses
system.l2.ReadSharedReq_mshr_misses::total       186267                       # number of ReadSharedReq MSHR misses
system.l2.demand_mshr_misses::cpu0.data        186501                       # number of demand (read+write) MSHR misses
system.l2.demand_mshr_misses::total            186501                       # number of demand (read+write) MSHR misses
system.l2.overall_mshr_misses::cpu0.data       186501                       # number of overall MSHR misses
system.l2.overall_mshr_misses::total           186501                       # number of overall MSHR misses
system.l2.ReadExReq_mshr_miss_latency::cpu0.data     21988500                       # number of ReadExReq MSHR miss cycles
system.l2.ReadExReq_mshr_miss_latency::total     21988500                       # number of ReadExReq MSHR miss cycles
system.l2.ReadSharedReq_mshr_miss_latency::cpu0.data  15828172500                       # number of ReadSharedReq MSHR miss cycles
system.l2.ReadSharedReq_mshr_miss_latency::total  15828172500                       # number of ReadSharedReq MSHR miss cycles
system.l2.demand_mshr_miss_latency::cpu0.data  15850161000                       # number of demand (read+write) MSHR miss cycles
system.l2.demand_mshr_miss_latency::total  15850161000                       # number of demand (read+write) MSHR miss cycles
system.l2.overall_mshr_miss_latency::cpu0.data  15850161000                       # number of overall MSHR miss cycles
system.l2.overall_mshr_miss_latency::total  15850161000                       # number of overall MSHR miss cycles
system.l2.ReadExReq_mshr_miss_rate::cpu0.data     0.238289                       # mshr miss rate for ReadExReq accesses
system.l2.ReadExReq_mshr_miss_rate::total     0.238289                       # mshr miss rate for ReadExReq accesses
system.l2.ReadSharedReq_mshr_miss_rate::cpu0.data     0.651864                       # mshr miss rate for ReadSharedReq accesses
system.l2.ReadSharedReq_mshr_miss_rate::total     0.651864                       # mshr miss rate for ReadSharedReq accesses
system.l2.demand_mshr_miss_rate::cpu0.data     0.650448                       # mshr miss rate for demand accesses
system.l2.demand_mshr_miss_rate::total       0.650448                       # mshr miss rate for demand accesses
system.l2.overall_mshr_miss_rate::cpu0.data     0.650448                       # mshr miss rate for overall accesses
system.l2.overall_mshr_miss_rate::total      0.650448                       # mshr miss rate for overall accesses
system.l2.ReadExReq_avg_mshr_miss_latency::cpu0.data 93967.948718                       # average ReadExReq mshr miss latency
system.l2.ReadExReq_avg_mshr_miss_latency::total 93967.948718                       # average ReadExReq mshr miss latency
system.l2.ReadSharedReq_avg_mshr_miss_latency::cpu0.data 84975.720337                       # average ReadSharedReq mshr miss latency
system.l2.ReadSharedReq_avg_mshr_miss_latency::total 84975.720337                       # average ReadSharedReq mshr miss latency
system.l2.demand_avg_mshr_miss_latency::cpu0.data 84987.002751                       # average overall mshr miss latency
system.l2.demand_avg_mshr_miss_latency::total 84987.002751                       # average overall mshr miss latency
system.l2.overall_avg_mshr_miss_latency::cpu0.data 84987.002751                       # average overall mshr miss latency
system.l2.overall_avg_mshr_miss_latency::total 84987.002751                       # average overall mshr miss latency
system.membus.snoop_filter.tot_requests        372999                       # Total number of requests made to the snoop filter.
system.membus.snoop_filter.hit_single_requests       186501                       # Number of requests hitting in the snoop filter with a single holder of the requested data.
system.membus.snoop_filter.hit_multi_requests            0                       # Number of requests hitting in the snoop filter with multiple (>1) holders of the requested data.
system.membus.snoop_filter.tot_snoops               0                       # Total number of snoops made to the snoop filter.
system.membus.snoop_filter.hit_single_snoops            0                       # Number of snoops hitting in the snoop filter with a single holder of the requested data.
system.membus.snoop_filter.hit_multi_snoops            0                       # Number of snoops hitting in the snoop filter with multiple (>1) holders of the requested data.
system.membus.pwrStateResidencyTicks::UNDEFINED  15267344125                       # Cumulative time (in ticks) in various power states
system.membus.trans_dist::ReadResp             186267                       # Transaction distribution
system.membus.trans_dist::WritebackDirty          332                       # Transaction distribution
system.membus.trans_dist::CleanEvict           186166                       # Transaction distribution
system.membus.trans_dist::ReadExReq               234                       # Transaction distribution
system.membus.trans_dist::ReadExResp              234                       # Transaction distribution
system.membus.trans_dist::ReadSharedReq        186267                       # Transaction distribution
system.membus.pkt_count_system.l2.mem_side::system.mem_ctrls.port       559500                       # Packet count per connected master and slave (bytes)
system.membus.pkt_count_system.l2.mem_side::total       559500                       # Packet count per connected master and slave (bytes)
system.membus.pkt_count::total                 559500                       # Packet count per connected master and slave (bytes)
system.membus.pkt_size_system.l2.mem_side::system.mem_ctrls.port     11957312                       # Cumulative packet size per connected master and slave (bytes)
system.membus.pkt_size_system.l2.mem_side::total     11957312                       # Cumulative packet size per connected master and slave (bytes)
system.membus.pkt_size::total                11957312                       # Cumulative packet size per connected master and slave (bytes)
system.membus.snoops                                0                       # Total snoops (count)
system.membus.snoopTraffic                          0                       # Total snoop traffic (bytes)
system.membus.snoop_fanout::samples            186501                       # Request fanout histogram
system.membus.snoop_fanout::mean                    0                       # Request fanout histogram
system.membus.snoop_fanout::stdev                   0                       # Request fanout histogram
system.membus.snoop_fanout::underflows              0      0.00%      0.00% # Request fanout histogram
system.membus.snoop_fanout::0                  186501    100.00%    100.00% # Request fanout histogram
system.membus.snoop_fanout::1                       0      0.00%    100.00% # Request fanout histogram
system.membus.snoop_fanout::overflows               0      0.00%    100.00% # Request fanout histogram
system.membus.snoop_fanout::min_value               0                       # Request fanout histogram
system.membus.snoop_fanout::max_value               0                       # Request fanout histogram
system.membus.snoop_fanout::total              186501                       # Request fanout histogram
system.membus.reqLayer8.occupancy           437792000                       # Layer occupancy (ticks)
system.membus.reqLayer8.utilization               2.9                       # Layer utilization (%)
system.membus.respLayer1.occupancy         1010352750                       # Layer occupancy (ticks)
system.membus.respLayer1.utilization              6.6                       # Layer utilization (%)
system.tol2bus.snoop_filter.tot_requests       573454                       # Total number of requests made to the snoop filter.
system.tol2bus.snoop_filter.hit_single_requests       286731                       # Number of requests hitting in the snoop filter with a single holder of the requested data.
system.tol2bus.snoop_filter.hit_multi_requests          598                       # Number of requests hitting in the snoop filter with multiple (>1) holders of the requested data.
system.tol2bus.snoop_filter.tot_snoops              3                       # Total number of snoops made to the snoop filter.
system.tol2bus.snoop_filter.hit_single_snoops            3                       # Number of snoops hitting in the snoop filter with a single holder of the requested data.
system.tol2bus.snoop_filter.hit_multi_snoops            0                       # Number of snoops hitting in the snoop filter with multiple (>1) holders of the requested data.
system.tol2bus.pwrStateResidencyTicks::UNDEFINED  15267344125                       # Cumulative time (in ticks) in various power states
system.tol2bus.trans_dist::ReadResp            285745                       # Transaction distribution
system.tol2bus.trans_dist::WritebackDirty         3012                       # Transaction distribution
system.tol2bus.trans_dist::CleanEvict          470216                       # Transaction distribution
system.tol2bus.trans_dist::ReadExReq              982                       # Transaction distribution
system.tol2bus.trans_dist::ReadExResp             982                       # Transaction distribution
system.tol2bus.trans_dist::ReadSharedReq       285745                       # Transaction distribution
system.tol2bus.pkt_count_system.cpu0.dcache.mem_side::system.l2.cpu_side       860181                       # Packet count per connected master and slave (bytes)
system.tol2bus.pkt_count::total                860181                       # Packet count per connected master and slave (bytes)
system.tol2bus.pkt_size_system.cpu0.dcache.mem_side::system.l2.cpu_side     18522048                       # Cumulative packet size per connected master and slave (bytes)
system.tol2bus.pkt_size::total               18522048                       # Cumulative packet size per connected master and slave (bytes)
system.tol2bus.snoops                          186501                       # Total snoops (count)
system.tol2bus.snoopTraffic                     21248                       # Total snoop traffic (bytes)
system.tol2bus.snoop_fanout::samples           473228                       # Request fanout histogram
system.tol2bus.snoop_fanout::mean            0.001278                       # Request fanout histogram
system.tol2bus.snoop_fanout::stdev           0.035733                       # Request fanout histogram
system.tol2bus.snoop_fanout::underflows             0      0.00%      0.00% # Request fanout histogram
system.tol2bus.snoop_fanout::0                 472623     99.87%     99.87% # Request fanout histogram
system.tol2bus.snoop_fanout::1                    605      0.13%    100.00% # Request fanout histogram
system.tol2bus.snoop_fanout::2                      0      0.00%    100.00% # Request fanout histogram
system.tol2bus.snoop_fanout::3                      0      0.00%    100.00% # Request fanout histogram
system.tol2bus.snoop_fanout::4                      0      0.00%    100.00% # Request fanout histogram
system.tol2bus.snoop_fanout::5                      0      0.00%    100.00% # Request fanout histogram
system.tol2bus.snoop_fanout::6                      0      0.00%    100.00% # Request fanout histogram
system.tol2bus.snoop_fanout::7                      0      0.00%    100.00% # Request fanout histogram
system.tol2bus.snoop_fanout::8                      0      0.00%    100.00% # Request fanout histogram
system.tol2bus.snoop_fanout::9                      0      0.00%    100.00% # Request fanout histogram
system.tol2bus.snoop_fanout::10                     0      0.00%    100.00% # Request fanout histogram
system.tol2bus.snoop_fanout::11                     0      0.00%    100.00% # Request fanout histogram
system.tol2bus.snoop_fanout::12                     0      0.00%    100.00% # Request fanout histogram
system.tol2bus.snoop_fanout::13                     0      0.00%    100.00% # Request fanout histogram
system.tol2bus.snoop_fanout::14                     0      0.00%    100.00% # Request fanout histogram
system.tol2bus.snoop_fanout::15                     0      0.00%    100.00% # Request fanout histogram
system.tol2bus.snoop_fanout::16                     0      0.00%    100.00% # Request fanout histogram
system.tol2bus.snoop_fanout::overflows              0      0.00%    100.00% # Request fanout histogram
system.tol2bus.snoop_fanout::min_value              0                       # Request fanout histogram
system.tol2bus.snoop_fanout::max_value              1                       # Request fanout histogram
system.tol2bus.snoop_fanout::total             473228                       # Request fanout histogram
system.tol2bus.reqLayer0.occupancy          289407000                       # Layer occupancy (ticks)
system.tol2bus.reqLayer0.utilization              1.9                       # Layer utilization (%)
system.tol2bus.respLayer1.occupancy         430090500                       # Layer occupancy (ticks)
system.tol2bus.respLayer1.utilization             2.8                       # Layer utilization (%)

---------- End Simulation Statistics   ----------
