
---------- Begin Simulation Statistics ----------
sim_seconds                                  0.015267                       # Number of seconds simulated
sim_ticks                                 15267344125                       # Number of ticks simulated
final_tick                               6671829382625                       # Number of ticks from beginning of simulation (restored from checkpoints and never reset)
sim_freq                                 1000000000000                       # Frequency of simulated ticks
host_inst_rate                              127340719                       # Simulator instruction rate (inst/s)
host_op_rate                                237200626                       # Simulator op (including micro ops) rate (op/s)
host_tick_rate                              325024662                       # Simulator tick rate (ticks/s)
host_mem_usage                                2332532                       # Number of bytes of host memory used
host_seconds                                    46.97                       # Real time elapsed on the host
sim_insts                                  5981557909                       # Number of instructions simulated
sim_ops                                   11141994343                       # Number of ops (including micro ops) simulated
system.voltage_domain.voltage                       1                       # Voltage in Volts
system.clk_domain.clock                          1000                       # Clock period in ticks
system.mem_ctrls.pwrStateResidencyTicks::UNDEFINED  15267344125                       # Cumulative time (in ticks) in various power states
system.mem_ctrls.bytes_read::cpu0.data       11913280                       # Number of bytes read from this memory
system.mem_ctrls.bytes_read::total           11913280                       # Number of bytes read from this memory
system.mem_ctrls.bytes_written::writebacks        21312                       # Number of bytes written to this memory
system.mem_ctrls.bytes_written::total           21312                       # Number of bytes written to this memory
system.mem_ctrls.num_reads::cpu0.data          186145                       # Number of read requests responded to by this memory
system.mem_ctrls.num_reads::total              186145                       # Number of read requests responded to by this memory
system.mem_ctrls.num_writes::writebacks           333                       # Number of write requests responded to by this memory
system.mem_ctrls.num_writes::total                333                       # Number of write requests responded to by this memory
system.mem_ctrls.bw_read::cpu0.data         780311225                       # Total read bandwidth from this memory (bytes/s)
system.mem_ctrls.bw_read::total             780311225                       # Total read bandwidth from this memory (bytes/s)
system.mem_ctrls.bw_write::writebacks         1395921                       # Write bandwidth from this memory (bytes/s)
system.mem_ctrls.bw_write::total              1395921                       # Write bandwidth from this memory (bytes/s)
system.mem_ctrls.bw_total::writebacks         1395921                       # Total bandwidth to/from this memory (bytes/s)
system.mem_ctrls.bw_total::cpu0.data        780311225                       # Total bandwidth to/from this memory (bytes/s)
system.mem_ctrls.bw_total::total            781707146                       # Total bandwidth to/from this memory (bytes/s)
system.mem_ctrls.readReqs                      186144                       # Number of read requests accepted
system.mem_ctrls.writeReqs                        333                       # Number of write requests accepted
system.mem_ctrls.readBursts                    186144                       # Number of DRAM read bursts, including those serviced by the write queue
system.mem_ctrls.writeBursts                      333                       # Number of DRAM write bursts, including those merged in the write queue
system.mem_ctrls.bytesReadDRAM               11909504                       # Total number of bytes read from DRAM
system.mem_ctrls.bytesReadWrQ                    3712                       # Total number of bytes read from write queue
system.mem_ctrls.bytesWritten                   21632                       # Total number of bytes written to DRAM
system.mem_ctrls.bytesReadSys                11913216                       # Total read bytes from the system interface side
system.mem_ctrls.bytesWrittenSys                21312                       # Total written bytes from the system interface side
system.mem_ctrls.servicedByWrQ                     58                       # Number of DRAM read bursts serviced by the write queue
system.mem_ctrls.mergedWrBursts                     1                       # Number of DRAM write bursts merged with an existing one
system.mem_ctrls.neitherReadNorWriteReqs            0                       # Number of requests that are neither read nor write
system.mem_ctrls.perBankRdBursts::0             11439                       # Per bank write bursts
system.mem_ctrls.perBankRdBursts::1             11347                       # Per bank write bursts
system.mem_ctrls.perBankRdBursts::2             11519                       # Per bank write bursts
system.mem_ctrls.perBankRdBursts::3             11762                       # Per bank write bursts
system.mem_ctrls.perBankRdBursts::4             11986                       # Per bank write bursts
system.mem_ctrls.perBankRdBursts::5             12176                       # Per bank write bursts
system.mem_ctrls.perBankRdBursts::6             11878                       # Per bank write bursts
system.mem_ctrls.perBankRdBursts::7             11547                       # Per bank write bursts
system.mem_ctrls.perBankRdBursts::8             11403                       # Per bank write bursts
system.mem_ctrls.perBankRdBursts::9             11602                       # Per bank write bursts
system.mem_ctrls.perBankRdBursts::10            11669                       # Per bank write bursts
system.mem_ctrls.perBankRdBursts::11            11606                       # Per bank write bursts
system.mem_ctrls.perBankRdBursts::12            11404                       # Per bank write bursts
system.mem_ctrls.perBankRdBursts::13            11755                       # Per bank write bursts
system.mem_ctrls.perBankRdBursts::14            11519                       # Per bank write bursts
system.mem_ctrls.perBankRdBursts::15            11474                       # Per bank write bursts
system.mem_ctrls.perBankWrBursts::0                24                       # Per bank write bursts
system.mem_ctrls.perBankWrBursts::1                 0                       # Per bank write bursts
system.mem_ctrls.perBankWrBursts::2                 0                       # Per bank write bursts
system.mem_ctrls.perBankWrBursts::3                65                       # Per bank write bursts
system.mem_ctrls.perBankWrBursts::4                 8                       # Per bank write bursts
system.mem_ctrls.perBankWrBursts::5                 0                       # Per bank write bursts
system.mem_ctrls.perBankWrBursts::6                 0                       # Per bank write bursts
system.mem_ctrls.perBankWrBursts::7                 0                       # Per bank write bursts
system.mem_ctrls.perBankWrBursts::8                11                       # Per bank write bursts
system.mem_ctrls.perBankWrBursts::9                 0                       # Per bank write bursts
system.mem_ctrls.perBankWrBursts::10                0                       # Per bank write bursts
system.mem_ctrls.perBankWrBursts::11                0                       # Per bank write bursts
system.mem_ctrls.perBankWrBursts::12                1                       # Per bank write bursts
system.mem_ctrls.perBankWrBursts::13               81                       # Per bank write bursts
system.mem_ctrls.perBankWrBursts::14              118                       # Per bank write bursts
system.mem_ctrls.perBankWrBursts::15               30                       # Per bank write bursts
system.mem_ctrls.numRdRetry                         0                       # Number of times read queue was full causing retry
system.mem_ctrls.numWrRetry                         0                       # Number of times write queue was full causing retry
system.mem_ctrls.totGap                   15267294000                       # Total gap between requests
system.mem_ctrls.readPktSize::0                     0                       # Read request sizes (log2)
system.mem_ctrls.readPktSize::1                     0                       # Read request sizes (log2)
system.mem_ctrls.readPktSize::2                     0                       # Read request sizes (log2)
system.mem_ctrls.readPktSize::3                     0                       # Read request sizes (log2)
system.mem_ctrls.readPktSize::4                     0                       # Read request sizes (log2)
system.mem_ctrls.readPktSize::5                     0                       # Read request sizes (log2)
system.mem_ctrls.readPktSize::6                186144                       # Read request sizes (log2)
system.mem_ctrls.writePktSize::0                    0                       # Write request sizes (log2)
system.mem_ctrls.writePktSize::1                    0                       # Write request sizes (log2)
system.mem_ctrls.writePktSize::2                    0                       # Write request sizes (log2)
system.mem_ctrls.writePktSize::3                    0                       # Write request sizes (log2)
system.mem_ctrls.writePktSize::4                    0                       # Write request sizes (log2)
system.mem_ctrls.writePktSize::5                    0                       # Write request sizes (log2)
system.mem_ctrls.writePktSize::6                  333                       # Write request sizes (log2)
system.mem_ctrls.rdQLenPdf::0                  142037                       # What read queue length does an incoming req see
system.mem_ctrls.rdQLenPdf::1                   41181                       # What read queue length does an incoming req see
system.mem_ctrls.rdQLenPdf::2                    2809                       # What read queue length does an incoming req see
system.mem_ctrls.rdQLenPdf::3                      59                       # What read queue length does an incoming req see
system.mem_ctrls.rdQLenPdf::4                       0                       # What read queue length does an incoming req see
system.mem_ctrls.rdQLenPdf::5                       0                       # What read queue length does an incoming req see
system.mem_ctrls.rdQLenPdf::6                       0                       # What read queue length does an incoming req see
system.mem_ctrls.rdQLenPdf::7                       0                       # What read queue length does an incoming req see
system.mem_ctrls.rdQLenPdf::8                       0                       # What read queue length does an incoming req see
system.mem_ctrls.rdQLenPdf::9                       0                       # What read queue length does an incoming req see
system.mem_ctrls.rdQLenPdf::10                      0                       # What read queue length does an incoming req see
system.mem_ctrls.rdQLenPdf::11                      0                       # What read queue length does an incoming req see
system.mem_ctrls.rdQLenPdf::12                      0                       # What read queue length does an incoming req see
system.mem_ctrls.rdQLenPdf::13                      0                       # What read queue length does an incoming req see
system.mem_ctrls.rdQLenPdf::14                      0                       # What read queue length does an incoming req see
system.mem_ctrls.rdQLenPdf::15                      0                       # What read queue length does an incoming req see
system.mem_ctrls.rdQLenPdf::16                      0                       # What read queue length does an incoming req see
system.mem_ctrls.rdQLenPdf::17                      0                       # What read queue length does an incoming req see
system.mem_ctrls.rdQLenPdf::18                      0                       # What read queue length does an incoming req see
system.mem_ctrls.rdQLenPdf::19                      0                       # What read queue length does an incoming req see
system.mem_ctrls.rdQLenPdf::20                      0                       # What read queue length does an incoming req see
system.mem_ctrls.rdQLenPdf::21                      0                       # What read queue length does an incoming req see
system.mem_ctrls.rdQLenPdf::22                      0                       # What read queue length does an incoming req see
system.mem_ctrls.rdQLenPdf::23                      0                       # What read queue length does an incoming req see
system.mem_ctrls.rdQLenPdf::24                      0                       # What read queue length does an incoming req see
system.mem_ctrls.rdQLenPdf::25                      0                       # What read queue length does an incoming req see
system.mem_ctrls.rdQLenPdf::26                      0                       # What read queue length does an incoming req see
system.mem_ctrls.rdQLenPdf::27                      0                       # What read queue length does an incoming req see
system.mem_ctrls.rdQLenPdf::28                      0                       # What read queue length does an incoming req see
system.mem_ctrls.rdQLenPdf::29                      0                       # What read queue length does an incoming req see
system.mem_ctrls.rdQLenPdf::30                      0                       # What read queue length does an incoming req see
system.mem_ctrls.rdQLenPdf::31                      0                       # What read queue length does an incoming req see
system.mem_ctrls.wrQLenPdf::0                       0                       # What write queue length does an incoming req see
system.mem_ctrls.wrQLenPdf::1                       0                       # What write queue length does an incoming req see
system.mem_ctrls.wrQLenPdf::2                       0                       # What write queue length does an incoming req see
system.mem_ctrls.wrQLenPdf::3                       0                       # What write queue length does an incoming req see
system.mem_ctrls.wrQLenPdf::4                       0                       # What write queue length does an incoming req see
system.mem_ctrls.wrQLenPdf::5                       0                       # What write queue length does an incoming req see
system.mem_ctrls.wrQLenPdf::6                       0                       # What write queue length does an incoming req see
system.mem_ctrls.wrQLenPdf::7                       0                       # What write queue length does an incoming req see
system.mem_ctrls.wrQLenPdf::8                       0                       # What write queue length does an incoming req see
system.mem_ctrls.wrQLenPdf::9                       0                       # What write queue length does an incoming req see
system.mem_ctrls.wrQLenPdf::10                      0                       # What write queue length does an incoming req see
system.mem_ctrls.wrQLenPdf::11                      0                       # What write queue length does an incoming req see
system.mem_ctrls.wrQLenPdf::12                      0                       # What write queue length does an incoming req see
system.mem_ctrls.wrQLenPdf::13                      0                       # What write queue length does an incoming req see
system.mem_ctrls.wrQLenPdf::14                      0                       # What write queue length does an incoming req see
system.mem_ctrls.wrQLenPdf::15                      1                       # What write queue length does an incoming req see
system.mem_ctrls.wrQLenPdf::16                      1                       # What write queue length does an incoming req see
system.mem_ctrls.wrQLenPdf::17                     21                       # What write queue length does an incoming req see
system.mem_ctrls.wrQLenPdf::18                     21                       # What write queue length does an incoming req see
system.mem_ctrls.wrQLenPdf::19                     21                       # What write queue length does an incoming req see
system.mem_ctrls.wrQLenPdf::20                     21                       # What write queue length does an incoming req see
system.mem_ctrls.wrQLenPdf::21                     21                       # What write queue length does an incoming req see
system.mem_ctrls.wrQLenPdf::22                     20                       # What write queue length does an incoming req see
system.mem_ctrls.wrQLenPdf::23                     20                       # What write queue length does an incoming req see
system.mem_ctrls.wrQLenPdf::24                     20                       # What write queue length does an incoming req see
system.mem_ctrls.wrQLenPdf::25                     20                       # What write queue length does an incoming req see
system.mem_ctrls.wrQLenPdf::26                     20                       # What write queue length does an incoming req see
system.mem_ctrls.wrQLenPdf::27                     20                       # What write queue length does an incoming req see
system.mem_ctrls.wrQLenPdf::28                     21                       # What write queue length does an incoming req see
system.mem_ctrls.wrQLenPdf::29                     21                       # What write queue length does an incoming req see
system.mem_ctrls.wrQLenPdf::30                     21                       # What write queue length does an incoming req see
system.mem_ctrls.wrQLenPdf::31                     21                       # What write queue length does an incoming req see
system.mem_ctrls.wrQLenPdf::32                     21                       # What write queue length does an incoming req see
system.mem_ctrls.wrQLenPdf::33                      0                       # What write queue length does an incoming req see
system.mem_ctrls.wrQLenPdf::34                      0                       # What write queue length does an incoming req see
system.mem_ctrls.wrQLenPdf::35                      0                       # What write queue length does an incoming req see
system.mem_ctrls.wrQLenPdf::36                      0                       # What write queue length does an incoming req see
system.mem_ctrls.wrQLenPdf::37                      0                       # What write queue length does an incoming req see
system.mem_ctrls.wrQLenPdf::38                      0                       # What write queue length does an incoming req see
system.mem_ctrls.wrQLenPdf::39                      0                       # What write queue length does an incoming req see
system.mem_ctrls.wrQLenPdf::40                      0                       # What write queue length does an incoming req see
system.mem_ctrls.wrQLenPdf::41                      0                       # What write queue length does an incoming req see
system.mem_ctrls.wrQLenPdf::42                      0                       # What write queue length does an incoming req see
system.mem_ctrls.wrQLenPdf::43                      0                       # What write queue length does an incoming req see
system.mem_ctrls.wrQLenPdf::44                      0                       # What write queue length does an incoming req see
system.mem_ctrls.wrQLenPdf::45                      0                       # What write queue length does an incoming req see
system.mem_ctrls.wrQLenPdf::46                      0                       # What write queue length does an incoming req see
system.mem_ctrls.wrQLenPdf::47                      0                       # What write queue length does an incoming req see
system.mem_ctrls.wrQLenPdf::48                      0                       # What write queue length does an incoming req see
system.mem_ctrls.wrQLenPdf::49                      0                       # What write queue length does an incoming req see
system.mem_ctrls.wrQLenPdf::50                      0                       # What write queue length does an incoming req see
system.mem_ctrls.wrQLenPdf::51                      0                       # What write queue length does an incoming req see
system.mem_ctrls.wrQLenPdf::52                      0                       # What write queue length does an incoming req see
system.mem_ctrls.wrQLenPdf::53                      0                       # What write queue length does an incoming req see
system.mem_ctrls.wrQLenPdf::54                      0                       # What write queue length does an incoming req see
system.mem_ctrls.wrQLenPdf::55                      0                       # What write queue length does an incoming req see
system.mem_ctrls.wrQLenPdf::56                      0                       # What write queue length does an incoming req see
system.mem_ctrls.wrQLenPdf::57                      0                       # What write queue length does an incoming req see
system.mem_ctrls.wrQLenPdf::58                      0                       # What write queue length does an incoming req see
system.mem_ctrls.wrQLenPdf::59                      0                       # What write queue length does an incoming req see
system.mem_ctrls.wrQLenPdf::60                      0                       # What write queue length does an incoming req see
system.mem_ctrls.wrQLenPdf::61                      0                       # What write queue length does an incoming req see
system.mem_ctrls.wrQLenPdf::62                      0                       # What write queue length does an incoming req see
system.mem_ctrls.wrQLenPdf::63                      0                       # What write queue length does an incoming req see
system.mem_ctrls.bytesPerActivate::samples        97266                       # Bytes accessed per row activation
system.mem_ctrls.bytesPerActivate::mean    122.657784                       # Bytes accessed per row activation
system.mem_ctrls.bytesPerActivate::gmean   105.703715                       # Bytes accessed per row activation
system.mem_ctrls.bytesPerActivate::stdev    73.873085                       # Bytes accessed per row activation
system.mem_ctrls.bytesPerActivate::0-127        45593     46.87%     46.87% # Bytes accessed per row activation
system.mem_ctrls.bytesPerActivate::128-255        42182     43.37%     90.24% # Bytes accessed per row activation
system.mem_ctrls.bytesPerActivate::256-383         8294      8.53%     98.77% # Bytes accessed per row activation
system.mem_ctrls.bytesPerActivate::384-511         1036      1.07%     99.83% # Bytes accessed per row activation
system.mem_ctrls.bytesPerActivate::512-639          132      0.14%     99.97% # Bytes accessed per row activation
system.mem_ctrls.bytesPerActivate::640-767           15      0.02%     99.99% # Bytes accessed per row activation
system.mem_ctrls.bytesPerActivate::768-895            5      0.01%     99.99% # Bytes accessed per row activation
system.mem_ctrls.bytesPerActivate::896-1023            6      0.01%    100.00% # Bytes accessed per row activation
system.mem_ctrls.bytesPerActivate::1024-1151            3      0.00%    100.00% # Bytes accessed per row activation
system.mem_ctrls.bytesPerActivate::total        97266                       # Bytes accessed per row activation
system.mem_ctrls.rdPerTurnAround::samples           21                       # Reads before turning the bus around for writes
system.mem_ctrls.rdPerTurnAround::mean    8851.285714                       # Reads before turning the bus around for writes
system.mem_ctrls.rdPerTurnAround::gmean   8568.811361                       # Reads before turning the bus around for writes
system.mem_ctrls.rdPerTurnAround::stdev   2429.372864                       # Reads before turning the bus around for writes
system.mem_ctrls.rdPerTurnAround::5120-5631            1      4.76%      4.76% # Reads before turning the bus around for writes
system.mem_ctrls.rdPerTurnAround::5632-6143            1      4.76%      9.52% # Reads before turning the bus around for writes
system.mem_ctrls.rdPerTurnAround::6144-6655            2      9.52%     19.05% # Reads before turning the bus around for writes
system.mem_ctrls.rdPerTurnAround::7168-7679            4     19.05%     38.10% # Reads before turning the bus around for writes
system.mem_ctrls.rdPerTurnAround::8192-8703            1      4.76%     42.86% # Reads before turning the bus around for writes
system.mem_ctrls.rdPerTurnAround::8704-9215            5     23.81%     66.67% # Reads before turning the bus around for writes
system.mem_ctrls.rdPerTurnAround::9216-9727            3     14.29%     80.95% # Reads before turning the bus around for writes
system.mem_ctrls.rdPerTurnAround::10240-10751            2      9.52%     90.48% # Reads before turning the bus around for writes
system.mem_ctrls.rdPerTurnAround::13312-13823            1      4.76%     95.24% # Reads before turning the bus around for writes
system.mem_ctrls.rdPerTurnAround::15360-15871            1      4.76%    100.00% # Reads before turning the bus around for writes
system.mem_ctrls.rdPerTurnAround::total            21                       # Reads before turning the bus around for writes
system.mem_ctrls.wrPerTurnAround::samples           21                       # Writes before turning the bus around for reads
system.mem_ctrls.wrPerTurnAround::mean      16.095238                       # Writes before turning the bus around for reads
system.mem_ctrls.wrPerTurnAround::gmean     16.089992                       # Writes before turning the bus around for reads
system.mem_ctrls.wrPerTurnAround::stdev      0.436436                       # Writes before turning the bus around for reads
system.mem_ctrls.wrPerTurnAround::16               20     95.24%     95.24% # Writes before turning the bus around for reads
system.mem_ctrls.wrPerTurnAround::18                1      4.76%    100.00% # Writes before turning the bus around for reads
system.mem_ctrls.wrPerTurnAround::total            21                       # Writes before turning the bus around for reads
system.mem_ctrls.totQLat                   4593721750                       # Total ticks spent queuing
system.mem_ctrls.totMemAccLat              8082834250                       # Total ticks spent from burst creation until serviced by the DRAM
system.mem_ctrls.totBusLat                  930430000                       # Total ticks spent in databus transfers
system.mem_ctrls.avgQLat                     24686.01                       # Average queueing delay per DRAM burst
system.mem_ctrls.avgBusLat                    5000.00                       # Average bus latency per DRAM burst
system.mem_ctrls.avgMemAccLat                43436.01                       # Average memory access latency per DRAM burst
system.mem_ctrls.avgRdBW                       780.06                       # Average DRAM read bandwidth in MiByte/s
system.mem_ctrls.avgWrBW                         1.42                       # Average achieved write bandwidth in MiByte/s
system.mem_ctrls.avgRdBWSys                    780.31                       # Average system read bandwidth in MiByte/s
system.mem_ctrls.avgWrBWSys                      1.40                       # Average system write bandwidth in MiByte/s
system.mem_ctrls.peakBW                      12800.00                       # Theoretical peak bandwidth in MiByte/s
system.mem_ctrls.busUtil                         6.11                       # Data bus utilization in percentage
system.mem_ctrls.busUtilRead                     6.09                       # Data bus utilization in percentage for reads
system.mem_ctrls.busUtilWrite                    0.01                       # Data bus utilization in percentage for writes
system.mem_ctrls.avgRdQLen                       1.30                       # Average read queue length when enqueuing
system.mem_ctrls.avgWrQLen                      26.04                       # Average write queue length when enqueuing
system.mem_ctrls.readRowHits                    88873                       # Number of row buffer hits during reads
system.mem_ctrls.writeRowHits                     281                       # Number of row buffer hits during writes
system.mem_ctrls.readRowHitRate                 47.76                       # Row buffer hit rate for reads
system.mem_ctrls.writeRowHitRate                84.64                       # Row buffer hit rate for writes
system.mem_ctrls.avgGap                      81872.26                       # Average gap between requests
system.mem_ctrls.pageHitRate                    47.82                       # Row buffer hit rate, read and write combined
system.mem_ctrls_0.actEnergy                347853660                       # Energy for activate commands per rank (pJ)
system.mem_ctrls_0.preEnergy                184892400                       # Energy for precharge commands per rank (pJ)
system.mem_ctrls_0.readEnergy               668689560                       # Energy for read commands per rank (pJ)
system.mem_ctrls_0.writeEnergy                 506340                       # Energy for write commands per rank (pJ)
system.mem_ctrls_0.refreshEnergy         1205309040.000000                       # Energy for refresh commands per rank (pJ)
system.mem_ctrls_0.actBackEnergy           1597280220                       # Energy for active background per rank (pJ)
system.mem_ctrls_0.preBackEnergy             24643680                       # Energy for precharge background per rank (pJ)
system.mem_ctrls_0.actPowerDownEnergy      5204386140                       # Energy for active power-down per rank (pJ)
system.mem_ctrls_0.prePowerDownEnergy       110297760                       # Energy for precharge power-down per rank (pJ)
system.mem_ctrls_0.selfRefreshEnergy                0                       # Energy for self refresh per rank (pJ)
system.mem_ctrls_0.totalEnergy             9343858800                       # Total energy per rank (pJ)
system.mem_ctrls_0.averagePower            612.015995                       # Core power per rank (mW)
system.mem_ctrls_0.totalIdleTime          11698654000                       # Total Idle time Per DRAM Rank
system.mem_ctrls_0.memoryStateTime::IDLE      9774000                       # Time in different power states
system.mem_ctrls_0.memoryStateTime::REF     509860000                       # Time in different power states
system.mem_ctrls_0.memoryStateTime::SREF            0                       # Time in different power states
system.mem_ctrls_0.memoryStateTime::PRE_PDN    286878750                       # Time in different power states
system.mem_ctrls_0.memoryStateTime::ACT    3048701750                       # Time in different power states
system.mem_ctrls_0.memoryStateTime::ACT_PDN  11412129625                       # Time in different power states
system.mem_ctrls_1.actEnergy                346654140                       # Energy for activate commands per rank (pJ)
system.mem_ctrls_1.preEnergy                184232070                       # Energy for precharge commands per rank (pJ)
system.mem_ctrls_1.readEnergy               659964480                       # Energy for read commands per rank (pJ)
system.mem_ctrls_1.writeEnergy                1258020                       # Energy for write commands per rank (pJ)
system.mem_ctrls_1.refreshEnergy         1204694400.000000                       # Energy for refresh commands per rank (pJ)
system.mem_ctrls_1.actBackEnergy           1586943840                       # Energy for active background per rank (pJ)
system.mem_ctrls_1.preBackEnergy             24573600                       # Energy for precharge background per rank (pJ)
system.mem_ctrls_1.actPowerDownEnergy      5220428790                       # Energy for active power-down per rank (pJ)
system.mem_ctrls_1.prePowerDownEnergy       105562560                       # Energy for precharge power-down per rank (pJ)
system.mem_ctrls_1.selfRefreshEnergy                0                       # Energy for self refresh per rank (pJ)
system.mem_ctrls_1.totalEnergy             9334311900                       # Total energy per rank (pJ)
system.mem_ctrls_1.averagePower            611.390680                       # Core power per rank (mW)
system.mem_ctrls_1.totalIdleTime          11723743250                       # Total Idle time Per DRAM Rank
system.mem_ctrls_1.memoryStateTime::IDLE      9677000                       # Time in different power states
system.mem_ctrls_1.memoryStateTime::REF     509600000                       # Time in different power states
system.mem_ctrls_1.memoryStateTime::SREF            0                       # Time in different power states
system.mem_ctrls_1.memoryStateTime::PRE_PDN    275089000                       # Time in different power states
system.mem_ctrls_1.memoryStateTime::ACT    3024293000                       # Time in different power states
system.mem_ctrls_1.memoryStateTime::ACT_PDN  11448685125                       # Time in different power states
system.pwrStateResidencyTicks::UNDEFINED  15267344125                       # Cumulative time (in ticks) in various power states
system.cpu0.branchPred.lookups                1686633                       # Number of BP lookups
system.cpu0.branchPred.condPredicted          1686633                       # Number of conditional branches predicted
system.cpu0.branchPred.condIncorrect            66022                       # Number of conditional branches incorrect
system.cpu0.branchPred.BTBLookups             1300640                       # Number of BTB lookups
system.cpu0.branchPred.BTBHits                      0                       # Number of BTB hits
system.cpu0.branchPred.BTBCorrect                   0                       # Number of correct BTB predictions (this stat may not work properly.
system.cpu0.branchPred.BTBHitPct             0.000000                       # BTB Hit Percentage
system.cpu0.branchPred.usedRAS                  40674                       # Number of times the RAS was used to get a target.
system.cpu0.branchPred.RASInCorrect              5824                       # Number of incorrect RAS predictions.
system.cpu0.branchPred.indirectLookups        1300640                       # Number of indirect predictor lookups.
system.cpu0.branchPred.indirectHits            728559                       # Number of indirect target hits.
system.cpu0.branchPred.indirectMisses          572081                       # Number of indirect misses.
system.cpu0.branchPredindirectMispredicted        20207                       # Number of mispredicted indirect branches.
system.cpu_voltage_domain.voltage                   1                       # Voltage in Volts
system.cpu_clk_domain.clock                       500                       # Clock period in ticks
system.cpu0.dtb.walker.pwrStateResidencyTicks::UNDEFINED  15267344125                       # Cumulative time (in ticks) in various power states
system.cpu0.dtb.rdAccesses                     797836                       # TLB accesses on read requests
system.cpu0.dtb.wrAccesses                      46457                       # TLB accesses on write requests
system.cpu0.dtb.rdMisses                       173516                       # TLB misses on read requests
system.cpu0.dtb.wrMisses                          826                       # TLB misses on write requests
system.cpu0.apic_clk_domain.clock                8000                       # Clock period in ticks
system.cpu0.interrupts.pwrStateResidencyTicks::UNDEFINED  15267344125                       # Cumulative time (in ticks) in various power states
system.cpu0.itb.walker.pwrStateResidencyTicks::UNDEFINED  15267344125                       # Cumulative time (in ticks) in various power states
system.cpu0.itb.rdAccesses                          0                       # TLB accesses on read requests
system.cpu0.itb.wrAccesses                    1429177                       # TLB accesses on write requests
system.cpu0.itb.rdMisses                            0                       # TLB misses on read requests
system.cpu0.itb.wrMisses                         4561                       # TLB misses on write requests
system.cpu0.workload.numSyscalls                    0                       # Number of system calls
system.cpu0.pwrStateResidencyTicks::ON    15267344125                       # Cumulative time (in ticks) in various power states
system.cpu0.numCycles                        30534688                       # number of cpu cycles simulated
system.cpu0.numWorkItemsStarted                     0                       # number of work items this cpu started
system.cpu0.numWorkItemsCompleted                   0                       # number of work items this cpu completed
system.cpu0.fetch.icacheStallCycles           1458014                       # Number of cycles fetch is stalled on an Icache miss
system.cpu0.fetch.Insts                       4826827                       # Number of instructions fetch has processed
system.cpu0.fetch.Branches                    1686633                       # Number of branches that fetch encountered
system.cpu0.fetch.predictedBranches            769233                       # Number of branches that fetch has predicted taken
system.cpu0.fetch.Cycles                     28931795                       # Number of cycles fetch has run and was not squashing or blocked
system.cpu0.fetch.SquashCycles                 135082                       # Number of cycles fetch has spent squashing
system.cpu0.fetch.TlbCycles                      2512                       # Number of cycles fetch has spent waiting for tlb
system.cpu0.fetch.MiscStallCycles                1099                       # Number of cycles fetch has spent waiting on interrupts, or bad addresses, or out of MSHRs
system.cpu0.fetch.PendingTrapStallCycles        37437                       # Number of stall cycles due to pending traps
system.cpu0.fetch.CacheLines                  1424616                       # Number of cache lines fetched
system.cpu0.fetch.IcacheSquashes                 7275                       # Number of outstanding Icache misses that were squashed
system.cpu0.fetch.ItlbSquashes                      7                       # Number of outstanding ITLB misses that were squashed
system.cpu0.fetch.rateDist::samples          30498398                       # Number of instructions fetched each cycle (Total)
system.cpu0.fetch.rateDist::mean             0.318051                       # Number of instructions fetched each cycle (Total)
system.cpu0.fetch.rateDist::stdev            1.415015                       # Number of instructions fetched each cycle (Total)
system.cpu0.fetch.rateDist::underflows              0      0.00%      0.00% # Number of instructions fetched each cycle (Total)
system.cpu0.fetch.rateDist::0                28597030     93.77%     93.77% # Number of instructions fetched each cycle (Total)
system.cpu0.fetch.rateDist::1                   19049      0.06%     93.83% # Number of instructions fetched each cycle (Total)
system.cpu0.fetch.rateDist::2                  722871      2.37%     96.20% # Number of instructions fetched each cycle (Total)
system.cpu0.fetch.rateDist::3                   23461      0.08%     96.28% # Number of instructions fetched each cycle (Total)
system.cpu0.fetch.rateDist::4                  136816      0.45%     96.72% # Number of instructions fetched each cycle (Total)
system.cpu0.fetch.rateDist::5                   58314      0.19%     96.92% # Number of instructions fetched each cycle (Total)
system.cpu0.fetch.rateDist::6                   90049      0.30%     97.21% # Number of instructions fetched each cycle (Total)
system.cpu0.fetch.rateDist::7                   20734      0.07%     97.28% # Number of instructions fetched each cycle (Total)
system.cpu0.fetch.rateDist::8                  830074      2.72%    100.00% # Number of instructions fetched each cycle (Total)
system.cpu0.fetch.rateDist::overflows               0      0.00%    100.00% # Number of instructions fetched each cycle (Total)
system.cpu0.fetch.rateDist::min_value               0                       # Number of instructions fetched each cycle (Total)
system.cpu0.fetch.rateDist::max_value               8                       # Number of instructions fetched each cycle (Total)
system.cpu0.fetch.rateDist::total            30498398                       # Number of instructions fetched each cycle (Total)
system.cpu0.fetch.branchRate                 0.055237                       # Number of branch fetches per cycle
system.cpu0.fetch.rate                       0.158077                       # Number of inst fetches per cycle
system.cpu0.decode.IdleCycles                  703829                       # Number of cycles decode is idle
system.cpu0.decode.BlockedCycles             28492733                       # Number of cycles decode is blocked
system.cpu0.decode.RunCycles                   893635                       # Number of cycles decode is running
system.cpu0.decode.UnblockCycles               340660                       # Number of cycles decode is unblocking
system.cpu0.decode.SquashCycles                 67541                       # Number of cycles decode is squashing
system.cpu0.decode.DecodedInsts               8006350                       # Number of instructions handled by decode
system.cpu0.rename.SquashCycles                 67541                       # Number of cycles rename is squashing
system.cpu0.rename.IdleCycles                  805669                       # Number of cycles rename is idle
system.cpu0.rename.BlockCycles               27144652                       # Number of cycles rename is blocking
system.cpu0.rename.serializeStallCycles         17790                       # count of cycles rename stalled for serializing inst
system.cpu0.rename.RunCycles                  1049350                       # Number of cycles rename is running
system.cpu0.rename.UnblockCycles              1413396                       # Number of cycles rename is unblocking
system.cpu0.rename.RenamedInsts               7699472                       # Number of instructions processed by rename
system.cpu0.rename.ROBFullEvents                57813                       # Number of times rename has blocked due to ROB full
system.cpu0.rename.IQFullEvents               1151864                       # Number of times rename has blocked due to IQ full
system.cpu0.rename.LQFullEvents                212016                       # Number of times rename has blocked due to LQ full
system.cpu0.rename.SQFullEvents                   300                       # Number of times rename has blocked due to SQ full
system.cpu0.rename.RenamedOperands            9188517                       # Number of destination operands rename has renamed
system.cpu0.rename.RenameLookups             21540047                       # Number of register rename lookups that rename has made
system.cpu0.rename.int_rename_lookups        10008317                       # Number of integer rename lookups
system.cpu0.rename.fp_rename_lookups            37241                       # Number of floating rename lookups
system.cpu0.rename.CommittedMaps              3382617                       # Number of HB maps that are committed
system.cpu0.rename.UndoneMaps                 5805900                       # Number of HB maps that are undone due to squashing
system.cpu0.rename.serializingInsts               219                       # count of serializing insts renamed
system.cpu0.rename.tempSerializingInsts           278                       # count of temporary serializing insts renamed
system.cpu0.rename.skidInsts                  2180301                       # count of insts added to the skid buffer
system.cpu0.memDep0.insertedLoads             1407726                       # Number of loads inserted to the mem dependence unit.
system.cpu0.memDep0.insertedStores              68866                       # Number of stores inserted to the mem dependence unit.
system.cpu0.memDep0.conflictingLoads             5208                       # Number of conflicting loads.
system.cpu0.memDep0.conflictingStores            4309                       # Number of conflicting stores.
system.cpu0.iq.iqInstsAdded                   7342192                       # Number of instructions added to the IQ (excludes non-spec)
system.cpu0.iq.iqNonSpecInstsAdded               4227                       # Number of non-speculative instructions added to the IQ
system.cpu0.iq.iqInstsIssued                  5253948                       # Number of instructions issued
system.cpu0.iq.iqSquashedInstsIssued             5666                       # Number of squashed instructions issued
system.cpu0.iq.iqSquashedInstsExamined        4524045                       # Number of squashed instructions iterated over during squash; mainly for profiling
system.cpu0.iq.iqSquashedOperandsExamined      9653087                       # Number of squashed operands that are examined and possibly removed from graph
system.cpu0.iq.iqSquashedNonSpecRemoved          4227                       # Number of squashed non-spec instructions that were removed
system.cpu0.iq.issued_per_cycle::samples     30498398                       # Number of insts issued each cycle
system.cpu0.iq.issued_per_cycle::mean        0.172270                       # Number of insts issued each cycle
system.cpu0.iq.issued_per_cycle::stdev       0.747130                       # Number of insts issued each cycle
system.cpu0.iq.issued_per_cycle::underflows            0      0.00%      0.00% # Number of insts issued each cycle
system.cpu0.iq.issued_per_cycle::0           28295113     92.78%     92.78% # Number of insts issued each cycle
system.cpu0.iq.issued_per_cycle::1             893575      2.93%     95.71% # Number of insts issued each cycle
system.cpu0.iq.issued_per_cycle::2             472172      1.55%     97.25% # Number of insts issued each cycle
system.cpu0.iq.issued_per_cycle::3             316731      1.04%     98.29% # Number of insts issued each cycle
system.cpu0.iq.issued_per_cycle::4             317030      1.04%     99.33% # Number of insts issued each cycle
system.cpu0.iq.issued_per_cycle::5              87277      0.29%     99.62% # Number of insts issued each cycle
system.cpu0.iq.issued_per_cycle::6              73094      0.24%     99.86% # Number of insts issued each cycle
system.cpu0.iq.issued_per_cycle::7              24481      0.08%     99.94% # Number of insts issued each cycle
system.cpu0.iq.issued_per_cycle::8              18925      0.06%    100.00% # Number of insts issued each cycle
system.cpu0.iq.issued_per_cycle::overflows            0      0.00%    100.00% # Number of insts issued each cycle
system.cpu0.iq.issued_per_cycle::min_value            0                       # Number of insts issued each cycle
system.cpu0.iq.issued_per_cycle::max_value            8                       # Number of insts issued each cycle
system.cpu0.iq.issued_per_cycle::total       30498398                       # Number of insts issued each cycle
system.cpu0.iq.fu_full::No_OpClass                  0      0.00%      0.00% # attempts to use FU when none available
system.cpu0.iq.fu_full::IntAlu                   9906     67.71%     67.71% # attempts to use FU when none available
system.cpu0.iq.fu_full::IntMult                     0      0.00%     67.71% # attempts to use FU when none available
system.cpu0.iq.fu_full::IntDiv                      0      0.00%     67.71% # attempts to use FU when none available
system.cpu0.iq.fu_full::FloatAdd                 1075      7.35%     75.06% # attempts to use FU when none available
system.cpu0.iq.fu_full::FloatCmp                    0      0.00%     75.06% # attempts to use FU when none available
system.cpu0.iq.fu_full::FloatCvt                    0      0.00%     75.06% # attempts to use FU when none available
system.cpu0.iq.fu_full::FloatMult                   0      0.00%     75.06% # attempts to use FU when none available
system.cpu0.iq.fu_full::FloatMultAcc                0      0.00%     75.06% # attempts to use FU when none available
system.cpu0.iq.fu_full::FloatDiv                    0      0.00%     75.06% # attempts to use FU when none available
system.cpu0.iq.fu_full::FloatMisc                   0      0.00%     75.06% # attempts to use FU when none available
system.cpu0.iq.fu_full::FloatSqrt                   0      0.00%     75.06% # attempts to use FU when none available
system.cpu0.iq.fu_full::SimdAdd                     0      0.00%     75.06% # attempts to use FU when none available
system.cpu0.iq.fu_full::SimdAddAcc                  0      0.00%     75.06% # attempts to use FU when none available
system.cpu0.iq.fu_full::SimdAlu                     0      0.00%     75.06% # attempts to use FU when none available
system.cpu0.iq.fu_full::SimdCmp                     0      0.00%     75.06% # attempts to use FU when none available
system.cpu0.iq.fu_full::SimdCvt                     0      0.00%     75.06% # attempts to use FU when none available
system.cpu0.iq.fu_full::SimdMisc                    0      0.00%     75.06% # attempts to use FU when none available
system.cpu0.iq.fu_full::SimdMult                    0      0.00%     75.06% # attempts to use FU when none available
system.cpu0.iq.fu_full::SimdMultAcc                 0      0.00%     75.06% # attempts to use FU when none available
system.cpu0.iq.fu_full::SimdShift                   0      0.00%     75.06% # attempts to use FU when none available
system.cpu0.iq.fu_full::SimdShiftAcc                0      0.00%     75.06% # attempts to use FU when none available
system.cpu0.iq.fu_full::SimdSqrt                    0      0.00%     75.06% # attempts to use FU when none available
system.cpu0.iq.fu_full::SimdFloatAdd                0      0.00%     75.06% # attempts to use FU when none available
system.cpu0.iq.fu_full::SimdFloatAlu                0      0.00%     75.06% # attempts to use FU when none available
system.cpu0.iq.fu_full::SimdFloatCmp                0      0.00%     75.06% # attempts to use FU when none available
system.cpu0.iq.fu_full::SimdFloatCvt                0      0.00%     75.06% # attempts to use FU when none available
system.cpu0.iq.fu_full::SimdFloatDiv                0      0.00%     75.06% # attempts to use FU when none available
system.cpu0.iq.fu_full::SimdFloatMisc               0      0.00%     75.06% # attempts to use FU when none available
system.cpu0.iq.fu_full::SimdFloatMult               0      0.00%     75.06% # attempts to use FU when none available
system.cpu0.iq.fu_full::SimdFloatMultAcc            0      0.00%     75.06% # attempts to use FU when none available
system.cpu0.iq.fu_full::SimdFloatSqrt               0      0.00%     75.06% # attempts to use FU when none available
system.cpu0.iq.fu_full::MemRead                  3204     21.90%     96.96% # attempts to use FU when none available
system.cpu0.iq.fu_full::MemWrite                  241      1.65%     98.61% # attempts to use FU when none available
system.cpu0.iq.fu_full::FloatMemRead              143      0.98%     99.58% # attempts to use FU when none available
system.cpu0.iq.fu_full::FloatMemWrite              61      0.42%    100.00% # attempts to use FU when none available
system.cpu0.iq.fu_full::IprAccess                   0      0.00%    100.00% # attempts to use FU when none available
system.cpu0.iq.fu_full::InstPrefetch                0      0.00%    100.00% # attempts to use FU when none available
system.cpu0.iq.FU_type_0::No_OpClass            15609      0.30%      0.30% # Type of FU issued
system.cpu0.iq.FU_type_0::IntAlu              4332564     82.46%     82.76% # Type of FU issued
system.cpu0.iq.FU_type_0::IntMult                1139      0.02%     82.78% # Type of FU issued
system.cpu0.iq.FU_type_0::IntDiv                 8706      0.17%     82.95% # Type of FU issued
system.cpu0.iq.FU_type_0::FloatAdd              13250      0.25%     83.20% # Type of FU issued
system.cpu0.iq.FU_type_0::FloatCmp                  0      0.00%     83.20% # Type of FU issued
system.cpu0.iq.FU_type_0::FloatCvt                  0      0.00%     83.20% # Type of FU issued
system.cpu0.iq.FU_type_0::FloatMult                 0      0.00%     83.20% # Type of FU issued
system.cpu0.iq.FU_type_0::FloatMultAcc              0      0.00%     83.20% # Type of FU issued
system.cpu0.iq.FU_type_0::FloatDiv                  0      0.00%     83.20% # Type of FU issued
system.cpu0.iq.FU_type_0::FloatMisc                 0      0.00%     83.20% # Type of FU issued
system.cpu0.iq.FU_type_0::FloatSqrt                 0      0.00%     83.20% # Type of FU issued
system.cpu0.iq.FU_type_0::SimdAdd                   0      0.00%     83.20% # Type of FU issued
system.cpu0.iq.FU_type_0::SimdAddAcc                0      0.00%     83.20% # Type of FU issued
system.cpu0.iq.FU_type_0::SimdAlu                   0      0.00%     83.20% # Type of FU issued
system.cpu0.iq.FU_type_0::SimdCmp                   0      0.00%     83.20% # Type of FU issued
system.cpu0.iq.FU_type_0::SimdCvt                   0      0.00%     83.20% # Type of FU issued
system.cpu0.iq.FU_type_0::SimdMisc                  0      0.00%     83.20% # Type of FU issued
system.cpu0.iq.FU_type_0::SimdMult                  0      0.00%     83.20% # Type of FU issued
system.cpu0.iq.FU_type_0::SimdMultAcc               0      0.00%     83.20% # Type of FU issued
system.cpu0.iq.FU_type_0::SimdShift                 0      0.00%     83.20% # Type of FU issued
system.cpu0.iq.FU_type_0::SimdShiftAcc              0      0.00%     83.20% # Type of FU issued
system.cpu0.iq.FU_type_0::SimdSqrt                  0      0.00%     83.20% # Type of FU issued
system.cpu0.iq.FU_type_0::SimdFloatAdd              0      0.00%     83.20% # Type of FU issued
system.cpu0.iq.FU_type_0::SimdFloatAlu              0      0.00%     83.20% # Type of FU issued
system.cpu0.iq.FU_type_0::SimdFloatCmp              0      0.00%     83.20% # Type of FU issued
system.cpu0.iq.FU_type_0::SimdFloatCvt              0      0.00%     83.20% # Type of FU issued
system.cpu0.iq.FU_type_0::SimdFloatDiv              0      0.00%     83.20% # Type of FU issued
system.cpu0.iq.FU_type_0::SimdFloatMisc             0      0.00%     83.20% # Type of FU issued
system.cpu0.iq.FU_type_0::SimdFloatMult             0      0.00%     83.20% # Type of FU issued
system.cpu0.iq.FU_type_0::SimdFloatMultAcc            0      0.00%     83.20% # Type of FU issued
system.cpu0.iq.FU_type_0::SimdFloatSqrt             0      0.00%     83.20% # Type of FU issued
system.cpu0.iq.FU_type_0::MemRead              829881     15.80%     99.00% # Type of FU issued
system.cpu0.iq.FU_type_0::MemWrite              49963      0.95%     99.95% # Type of FU issued
system.cpu0.iq.FU_type_0::FloatMemRead           2605      0.05%    100.00% # Type of FU issued
system.cpu0.iq.FU_type_0::FloatMemWrite           231      0.00%    100.00% # Type of FU issued
system.cpu0.iq.FU_type_0::IprAccess                 0      0.00%    100.00% # Type of FU issued
system.cpu0.iq.FU_type_0::InstPrefetch              0      0.00%    100.00% # Type of FU issued
system.cpu0.iq.FU_type_0::total               5253948                       # Type of FU issued
system.cpu0.iq.rate                          0.172065                       # Inst issue rate
system.cpu0.iq.fu_busy_cnt                      14630                       # FU busy when requested
system.cpu0.iq.fu_busy_rate                  0.002785                       # FU busy rate (busy events/executed inst)
system.cpu0.iq.int_inst_queue_reads          40992732                       # Number of integer instruction queue reads
system.cpu0.iq.int_inst_queue_writes         11837490                       # Number of integer instruction queue writes
system.cpu0.iq.int_inst_queue_wakeup_accesses      5051327                       # Number of integer instruction queue wakeup accesses
system.cpu0.iq.fp_inst_queue_reads              33858                       # Number of floating instruction queue reads
system.cpu0.iq.fp_inst_queue_writes             32976                       # Number of floating instruction queue writes
system.cpu0.iq.fp_inst_queue_wakeup_accesses        14295                       # Number of floating instruction queue wakeup accesses
system.cpu0.iq.vec_inst_queue_reads                 0                       # Number of vector instruction queue reads
system.cpu0.iq.vec_inst_queue_writes                0                       # Number of vector instruction queue writes
system.cpu0.iq.vec_inst_queue_wakeup_accesses            0                       # Number of vector instruction queue wakeup accesses
system.cpu0.iq.int_alu_accesses               5235583                       # Number of integer alu accesses
system.cpu0.iq.fp_alu_accesses                  17386                       # Number of floating point alu accesses
system.cpu0.iq.vec_alu_accesses                     0                       # Number of vector alu accesses
system.cpu0.iew.lsq.thread0.forwLoads            3955                       # Number of loads that had data forwarded from stores
system.cpu0.iew.lsq.thread0.invAddrLoads            0                       # Number of loads ignored due to an invalid address
system.cpu0.iew.lsq.thread0.squashedLoads       867567                       # Number of loads squashed
system.cpu0.iew.lsq.thread0.ignoredResponses          120                       # Number of memory responses ignored because the instruction is squashed
system.cpu0.iew.lsq.thread0.memOrderViolation            3                       # Number of memory ordering violations
system.cpu0.iew.lsq.thread0.squashedStores        43868                       # Number of stores squashed
system.cpu0.iew.lsq.thread0.invAddrSwpfs            0                       # Number of software prefetches ignored due to an invalid address
system.cpu0.iew.lsq.thread0.blockedLoads            0                       # Number of blocked loads due to partial load-store forwarding
system.cpu0.iew.lsq.thread0.rescheduledLoads           25                       # Number of loads that were rescheduled
system.cpu0.iew.lsq.thread0.cacheBlocked         1852                       # Number of times an access to memory failed due to the cache being blocked
system.cpu0.iew.iewIdleCycles                       0                       # Number of cycles IEW is idle
system.cpu0.iew.iewSquashCycles                 67541                       # Number of cycles IEW is squashing
system.cpu0.iew.iewBlockCycles               25309530                       # Number of cycles IEW is blocking
system.cpu0.iew.iewUnblockCycles               277700                       # Number of cycles IEW is unblocking
system.cpu0.iew.iewDispatchedInsts            7346419                       # Number of instructions dispatched to IQ
system.cpu0.iew.iewDispSquashedInsts             3812                       # Number of squashed instructions skipped by dispatch
system.cpu0.iew.iewDispLoadInsts              1407726                       # Number of dispatched load instructions
system.cpu0.iew.iewDispStoreInsts               68866                       # Number of dispatched store instructions
system.cpu0.iew.iewDispNonSpecInsts              1547                       # Number of dispatched non-speculative instructions
system.cpu0.iew.iewIQFullEvents                 18934                       # Number of times the IQ has become full, causing a stall
system.cpu0.iew.iewLSQFullEvents                50529                       # Number of times the LSQ has become full, causing a stall
system.cpu0.iew.memOrderViolationEvents             3                       # Number of memory order violations
system.cpu0.iew.predictedTakenIncorrect         37134                       # Number of branches that were predicted taken incorrectly
system.cpu0.iew.predictedNotTakenIncorrect        37059                       # Number of branches that were predicted not taken incorrectly
system.cpu0.iew.branchMispredicts               74193                       # Number of branch mispredicts detected at execute
system.cpu0.iew.iewExecutedInsts              5167713                       # Number of executed instructions
system.cpu0.iew.iewExecLoadInsts               797626                       # Number of load instructions executed
system.cpu0.iew.iewExecSquashedInsts            86235                       # Number of squashed instructions skipped in execute
system.cpu0.iew.exec_swp                            0                       # number of swp insts executed
system.cpu0.iew.exec_nop                            0                       # number of nop insts executed
system.cpu0.iew.exec_refs                      844067                       # number of memory reference insts executed
system.cpu0.iew.exec_branches                  632121                       # Number of branches executed
system.cpu0.iew.exec_stores                     46441                       # Number of stores executed
system.cpu0.iew.exec_rate                    0.169241                       # Inst execution rate
system.cpu0.iew.wb_sent                       5080541                       # cumulative count of insts sent to commit
system.cpu0.iew.wb_count                      5065622                       # cumulative count of insts written-back
system.cpu0.iew.wb_producers                  3720705                       # num instructions producing a value
system.cpu0.iew.wb_consumers                  5898731                       # num instructions consuming a value
system.cpu0.iew.wb_rate                      0.165897                       # insts written-back per cycle
system.cpu0.iew.wb_fanout                    0.630764                       # average fanout of values written-back
system.cpu0.commit.commitSquashedInsts        4524702                       # The number of squashed insts skipped by commit
system.cpu0.commit.branchMispredicts            67540                       # The number of times a branch was mispredicted
system.cpu0.commit.committed_per_cycle::samples     29864365                       # Number of insts commited each cycle
system.cpu0.commit.committed_per_cycle::mean     0.094506                       # Number of insts commited each cycle
system.cpu0.commit.committed_per_cycle::stdev     0.563933                       # Number of insts commited each cycle
system.cpu0.commit.committed_per_cycle::underflows            0      0.00%      0.00% # Number of insts commited each cycle
system.cpu0.commit.committed_per_cycle::0     28631612     95.87%     95.87% # Number of insts commited each cycle
system.cpu0.commit.committed_per_cycle::1       571125      1.91%     97.78% # Number of insts commited each cycle
system.cpu0.commit.committed_per_cycle::2       135585      0.45%     98.24% # Number of insts commited each cycle
system.cpu0.commit.committed_per_cycle::3       371977      1.25%     99.48% # Number of insts commited each cycle
system.cpu0.commit.committed_per_cycle::4        62476      0.21%     99.69% # Number of insts commited each cycle
system.cpu0.commit.committed_per_cycle::5        34715      0.12%     99.81% # Number of insts commited each cycle
system.cpu0.commit.committed_per_cycle::6         5218      0.02%     99.83% # Number of insts commited each cycle
system.cpu0.commit.committed_per_cycle::7         3895      0.01%     99.84% # Number of insts commited each cycle
system.cpu0.commit.committed_per_cycle::8        47762      0.16%    100.00% # Number of insts commited each cycle
system.cpu0.commit.committed_per_cycle::overflows            0      0.00%    100.00% # Number of insts commited each cycle
system.cpu0.commit.committed_per_cycle::min_value            0                       # Number of insts commited each cycle
system.cpu0.commit.committed_per_cycle::max_value            8                       # Number of insts commited each cycle
system.cpu0.commit.committed_per_cycle::total     29864365                       # Number of insts commited each cycle
system.cpu0.commit.committedInsts             1412536                       # Number of instructions committed
system.cpu0.commit.committedOps               2822374                       # Number of ops (including micro ops) committed
system.cpu0.commit.swp_count                        0                       # Number of s/w prefetches committed
system.cpu0.commit.refs                        565157                       # Number of memory references committed
system.cpu0.commit.loads                       540159                       # Number of loads committed
system.cpu0.commit.membars                          0                       # Number of memory barriers committed
system.cpu0.commit.branches                    514880                       # Number of branches committed
system.cpu0.commit.vec_insts                        0                       # Number of committed Vector instructions.
system.cpu0.commit.fp_insts                     10018                       # Number of committed floating point instructions.
system.cpu0.commit.int_insts                  2812279                       # Number of committed integer instructions.
system.cpu0.commit.function_calls                4400                       # Number of function calls committed.
system.cpu0.commit.op_class_0::No_OpClass         3001      0.11%      0.11% # Class of committed instruction
system.cpu0.commit.op_class_0::IntAlu         2238232     79.30%     79.41% # Class of committed instruction
system.cpu0.commit.op_class_0::IntMult            176      0.01%     79.42% # Class of committed instruction
system.cpu0.commit.op_class_0::IntDiv            7252      0.26%     79.67% # Class of committed instruction
system.cpu0.commit.op_class_0::FloatAdd          8556      0.30%     79.98% # Class of committed instruction
system.cpu0.commit.op_class_0::FloatCmp             0      0.00%     79.98% # Class of committed instruction
system.cpu0.commit.op_class_0::FloatCvt             0      0.00%     79.98% # Class of committed instruction
system.cpu0.commit.op_class_0::FloatMult            0      0.00%     79.98% # Class of committed instruction
system.cpu0.commit.op_class_0::FloatMultAcc            0      0.00%     79.98% # Class of committed instruction
system.cpu0.commit.op_class_0::FloatDiv             0      0.00%     79.98% # Class of committed instruction
system.cpu0.commit.op_class_0::FloatMisc            0      0.00%     79.98% # Class of committed instruction
system.cpu0.commit.op_class_0::FloatSqrt            0      0.00%     79.98% # Class of committed instruction
system.cpu0.commit.op_class_0::SimdAdd              0      0.00%     79.98% # Class of committed instruction
system.cpu0.commit.op_class_0::SimdAddAcc            0      0.00%     79.98% # Class of committed instruction
system.cpu0.commit.op_class_0::SimdAlu              0      0.00%     79.98% # Class of committed instruction
system.cpu0.commit.op_class_0::SimdCmp              0      0.00%     79.98% # Class of committed instruction
system.cpu0.commit.op_class_0::SimdCvt              0      0.00%     79.98% # Class of committed instruction
system.cpu0.commit.op_class_0::SimdMisc             0      0.00%     79.98% # Class of committed instruction
system.cpu0.commit.op_class_0::SimdMult             0      0.00%     79.98% # Class of committed instruction
system.cpu0.commit.op_class_0::SimdMultAcc            0      0.00%     79.98% # Class of committed instruction
system.cpu0.commit.op_class_0::SimdShift            0      0.00%     79.98% # Class of committed instruction
system.cpu0.commit.op_class_0::SimdShiftAcc            0      0.00%     79.98% # Class of committed instruction
system.cpu0.commit.op_class_0::SimdSqrt             0      0.00%     79.98% # Class of committed instruction
system.cpu0.commit.op_class_0::SimdFloatAdd            0      0.00%     79.98% # Class of committed instruction
system.cpu0.commit.op_class_0::SimdFloatAlu            0      0.00%     79.98% # Class of committed instruction
system.cpu0.commit.op_class_0::SimdFloatCmp            0      0.00%     79.98% # Class of committed instruction
system.cpu0.commit.op_class_0::SimdFloatCvt            0      0.00%     79.98% # Class of committed instruction
system.cpu0.commit.op_class_0::SimdFloatDiv            0      0.00%     79.98% # Class of committed instruction
system.cpu0.commit.op_class_0::SimdFloatMisc            0      0.00%     79.98% # Class of committed instruction
system.cpu0.commit.op_class_0::SimdFloatMult            0      0.00%     79.98% # Class of committed instruction
system.cpu0.commit.op_class_0::SimdFloatMultAcc            0      0.00%     79.98% # Class of committed instruction
system.cpu0.commit.op_class_0::SimdFloatSqrt            0      0.00%     79.98% # Class of committed instruction
system.cpu0.commit.op_class_0::MemRead         538697     19.09%     99.06% # Class of committed instruction
system.cpu0.commit.op_class_0::MemWrite         24998      0.89%     99.95% # Class of committed instruction
system.cpu0.commit.op_class_0::FloatMemRead         1462      0.05%    100.00% # Class of committed instruction
system.cpu0.commit.op_class_0::FloatMemWrite            0      0.00%    100.00% # Class of committed instruction
system.cpu0.commit.op_class_0::IprAccess            0      0.00%    100.00% # Class of committed instruction
system.cpu0.commit.op_class_0::InstPrefetch            0      0.00%    100.00% # Class of committed instruction
system.cpu0.commit.op_class_0::total          2822374                       # Class of committed instruction
system.cpu0.commit.bw_lim_events                47762                       # number cycles where commit BW limit reached
system.cpu0.rob.rob_reads                    37163679                       # The number of ROB reads
system.cpu0.rob.rob_writes                   15329641                       # The number of ROB writes
system.cpu0.timesIdled                            291                       # Number of times that the entire CPU went into an idle state and unscheduled itself
system.cpu0.idleCycles                          36290                       # Total number of cycles that the CPU has spent unscheduled due to idling
system.cpu0.committedInsts                    1412536                       # Number of Instructions Simulated
system.cpu0.committedOps                      2822374                       # Number of Ops (including micro ops) Simulated
system.cpu0.cpi                             21.616927                       # CPI: Cycles Per Instruction
system.cpu0.cpi_total                       21.616927                       # CPI: Total CPI of All Threads
system.cpu0.ipc                              0.046260                       # IPC: Instructions Per Cycle
system.cpu0.ipc_total                        0.046260                       # IPC: Total IPC of All Threads
system.cpu0.int_regfile_reads                 5094544                       # number of integer regfile reads
system.cpu0.int_regfile_writes                4392325                       # number of integer regfile writes
system.cpu0.fp_regfile_reads                    25533                       # number of floating regfile reads
system.cpu0.fp_regfile_writes                   12703                       # number of floating regfile writes
system.cpu0.cc_regfile_reads                  3346913                       # number of cc regfile reads
system.cpu0.cc_regfile_writes                 1396839                       # number of cc regfile writes
system.cpu0.misc_regfile_reads                2757833                       # number of misc regfile reads
system.cpu0.dcache.tags.pwrStateResidencyTicks::UNDEFINED  15267344125                       # Cumulative time (in ticks) in various power states
system.cpu0.dcache.tags.replacements           287451                       # number of replacements
system.cpu0.dcache.tags.tagsinuse                1024                       # Cycle average of tags in use
system.cpu0.dcache.tags.total_refs             312033                       # Total number of references to valid blocks.
system.cpu0.dcache.tags.sampled_refs           287451                       # Sample count of references to valid blocks.
system.cpu0.dcache.tags.avg_refs             1.085517                       # Average number of references to valid blocks.
system.cpu0.dcache.tags.warmup_cycle                0                       # Cycle when the warmup percentage was hit.
system.cpu0.dcache.tags.occ_blocks::cpu0.data         1024                       # Average occupied blocks per requestor
system.cpu0.dcache.tags.occ_percent::cpu0.data            1                       # Average percentage of cache occupancy
system.cpu0.dcache.tags.occ_percent::total            1                       # Average percentage of cache occupancy
system.cpu0.dcache.tags.occ_task_id_blocks::1024         1024                       # Occupied blocks per task id
system.cpu0.dcache.tags.age_task_id_blocks_1024::0          140                       # Occupied blocks per task id
system.cpu0.dcache.tags.age_task_id_blocks_1024::1          791                       # Occupied blocks per task id
system.cpu0.dcache.tags.age_task_id_blocks_1024::2           93                       # Occupied blocks per task id
system.cpu0.dcache.tags.occ_task_id_percent::1024            1                       # Percentage of cache occupancy per task id
system.cpu0.dcache.tags.tag_accesses          3545551                       # Number of tag accesses
system.cpu0.dcache.tags.data_accesses         3545551                       # Number of data accesses
system.cpu0.dcache.pwrStateResidencyTicks::UNDEFINED  15267344125                       # Cumulative time (in ticks) in various power states
system.cpu0.dcache.ReadReq_hits::cpu0.data       287564                       # number of ReadReq hits
system.cpu0.dcache.ReadReq_hits::total         287564                       # number of ReadReq hits
system.cpu0.dcache.WriteReq_hits::cpu0.data        24002                       # number of WriteReq hits
system.cpu0.dcache.WriteReq_hits::total         24002                       # number of WriteReq hits
system.cpu0.dcache.demand_hits::cpu0.data       311566                       # number of demand (read+write) hits
system.cpu0.dcache.demand_hits::total          311566                       # number of demand (read+write) hits
system.cpu0.dcache.overall_hits::cpu0.data       311566                       # number of overall hits
system.cpu0.dcache.overall_hits::total         311566                       # number of overall hits
system.cpu0.dcache.ReadReq_misses::cpu0.data       501963                       # number of ReadReq misses
system.cpu0.dcache.ReadReq_misses::total       501963                       # number of ReadReq misses
system.cpu0.dcache.WriteReq_misses::cpu0.data          996                       # number of WriteReq misses
system.cpu0.dcache.WriteReq_misses::total          996                       # number of WriteReq misses
system.cpu0.dcache.demand_misses::cpu0.data       502959                       # number of demand (read+write) misses
system.cpu0.dcache.demand_misses::total        502959                       # number of demand (read+write) misses
system.cpu0.dcache.overall_misses::cpu0.data       502959                       # number of overall misses
system.cpu0.dcache.overall_misses::total       502959                       # number of overall misses
system.cpu0.dcache.ReadReq_miss_latency::cpu0.data  34376051000                       # number of ReadReq miss cycles
system.cpu0.dcache.ReadReq_miss_latency::total  34376051000                       # number of ReadReq miss cycles
system.cpu0.dcache.WriteReq_miss_latency::cpu0.data     34864000                       # number of WriteReq miss cycles
system.cpu0.dcache.WriteReq_miss_latency::total     34864000                       # number of WriteReq miss cycles
system.cpu0.dcache.demand_miss_latency::cpu0.data  34410915000                       # number of demand (read+write) miss cycles
system.cpu0.dcache.demand_miss_latency::total  34410915000                       # number of demand (read+write) miss cycles
system.cpu0.dcache.overall_miss_latency::cpu0.data  34410915000                       # number of overall miss cycles
system.cpu0.dcache.overall_miss_latency::total  34410915000                       # number of overall miss cycles
system.cpu0.dcache.ReadReq_accesses::cpu0.data       789527                       # number of ReadReq accesses(hits+misses)
system.cpu0.dcache.ReadReq_accesses::total       789527                       # number of ReadReq accesses(hits+misses)
system.cpu0.dcache.WriteReq_accesses::cpu0.data        24998                       # number of WriteReq accesses(hits+misses)
system.cpu0.dcache.WriteReq_accesses::total        24998                       # number of WriteReq accesses(hits+misses)
system.cpu0.dcache.demand_accesses::cpu0.data       814525                       # number of demand (read+write) accesses
system.cpu0.dcache.demand_accesses::total       814525                       # number of demand (read+write) accesses
system.cpu0.dcache.overall_accesses::cpu0.data       814525                       # number of overall (read+write) accesses
system.cpu0.dcache.overall_accesses::total       814525                       # number of overall (read+write) accesses
system.cpu0.dcache.ReadReq_miss_rate::cpu0.data     0.635777                       # miss rate for ReadReq accesses
system.cpu0.dcache.ReadReq_miss_rate::total     0.635777                       # miss rate for ReadReq accesses
system.cpu0.dcache.WriteReq_miss_rate::cpu0.data     0.039843                       # miss rate for WriteReq accesses
system.cpu0.dcache.WriteReq_miss_rate::total     0.039843                       # miss rate for WriteReq accesses
system.cpu0.dcache.demand_miss_rate::cpu0.data     0.617487                       # miss rate for demand accesses
system.cpu0.dcache.demand_miss_rate::total     0.617487                       # miss rate for demand accesses
system.cpu0.dcache.overall_miss_rate::cpu0.data     0.617487                       # miss rate for overall accesses
system.cpu0.dcache.overall_miss_rate::total     0.617487                       # miss rate for overall accesses
system.cpu0.dcache.ReadReq_avg_miss_latency::cpu0.data 68483.236812                       # average ReadReq miss latency
system.cpu0.dcache.ReadReq_avg_miss_latency::total 68483.236812                       # average ReadReq miss latency
system.cpu0.dcache.WriteReq_avg_miss_latency::cpu0.data 35004.016064                       # average WriteReq miss latency
system.cpu0.dcache.WriteReq_avg_miss_latency::total 35004.016064                       # average WriteReq miss latency
system.cpu0.dcache.demand_avg_miss_latency::cpu0.data 68416.938558                       # average overall miss latency
system.cpu0.dcache.demand_avg_miss_latency::total 68416.938558                       # average overall miss latency
system.cpu0.dcache.overall_avg_miss_latency::cpu0.data 68416.938558                       # average overall miss latency
[...]
system.l2.ReadSharedReq_hits::cpu0.data        100559                       # number of ReadSharedReq hits
system.l2.ReadSharedReq_hits::total            100559                       # number of ReadSharedReq hits
system.l2.demand_hits::cpu0.data               101307                       # number of demand (read+write) hits
system.l2.demand_hits::total                   101307                       # number of demand (read+write) hits
system.l2.overall_hits::cpu0.data              101307                       # number of overall hits
system.l2.overall_hits::total                  101307                       # number of overall hits
system.l2.ReadExReq_misses::cpu0.data             240                       # number of ReadExReq misses
system.l2.ReadExReq_misses::total                 240                       # number of ReadExReq misses
system.l2.ReadSharedReq_misses::cpu0.data       185904                       # number of ReadSharedReq misses
system.l2.ReadSharedReq_misses::total          185904                       # number of ReadSharedReq misses
system.l2.demand_misses::cpu0.data             186144                       # number of demand (read+write) misses
system.l2.demand_misses::total                 186144                       # number of demand (read+write) misses
system.l2.overall_misses::cpu0.data            186144                       # number of overall misses
system.l2.overall_misses::total                186144                       # number of overall misses
system.l2.ReadExReq_miss_latency::cpu0.data     23632500                       # number of ReadExReq miss cycles
system.l2.ReadExReq_miss_latency::total      23632500                       # number of ReadExReq miss cycles
system.l2.ReadSharedReq_miss_latency::cpu0.data  17662824000                       # number of ReadSharedReq miss cycles
system.l2.ReadSharedReq_miss_latency::total  17662824000                       # number of ReadSharedReq miss cycles
system.l2.demand_miss_latency::cpu0.data  17686456500                       # number of demand (read+write) miss cycles
system.l2.demand_miss_latency::total      17686456500                       # number of demand (read+write) miss cycles
system.l2.overall_miss_latency::cpu0.data  17686456500                       # number of overall miss cycles
system.l2.overall_miss_latency::total     17686456500                       # number of overall miss cycles
system.l2.WritebackDirty_accesses::writebacks         2820                       # number of WritebackDirty accesses(hits+misses)
system.l2.WritebackDirty_accesses::total         2820                       # number of WritebackDirty accesses(hits+misses)
system.l2.ReadExReq_accesses::cpu0.data           988                       # number of ReadExReq accesses(hits+misses)
system.l2.ReadExReq_accesses::total               988                       # number of ReadExReq accesses(hits+misses)
system.l2.ReadSharedReq_accesses::cpu0.data       286463                       # number of ReadSharedReq accesses(hits+misses)
system.l2.ReadSharedReq_accesses::total        286463                       # number of ReadSharedReq accesses(hits+misses)
system.l2.demand_accesses::cpu0.data           287451                       # number of demand (read+write) accesses
system.l2.demand_accesses::total               287451                       # number of demand (read+write) accesses
system.l2.overall_accesses::cpu0.data          287451                       # number of overall (read+write) accesses
system.l2.overall_accesses::total              287451                       # number of overall (read+write) accesses
system.l2.ReadExReq_miss_rate::cpu0.data     0.242915                       # miss rate for ReadExReq accesses
system.l2.ReadExReq_miss_rate::total         0.242915                       # miss rate for ReadExReq accesses
system.l2.ReadSharedReq_miss_rate::cpu0.data     0.648963                       # miss rate for ReadSharedReq accesses
system.l2.ReadSharedReq_miss_rate::total     0.648963                       # miss rate for ReadSharedReq accesses
system.l2.demand_miss_rate::cpu0.data        0.647568                       # miss rate for demand accesses
system.l2.demand_miss_rate::total            0.647568                       # miss rate for demand accesses
system.l2.overall_miss_rate::cpu0.data       0.647568                       # miss rate for overall accesses
system.l2.overall_miss_rate::total           0.647568                       # miss rate for overall accesses
system.l2.ReadExReq_avg_miss_latency::cpu0.data 98468.750000                       # average ReadExReq miss latency
system.l2.ReadExReq_avg_miss_latency::total 98468.750000                       # average ReadExReq miss latency
system.l2.ReadSharedReq_avg_miss_latency::cpu0.data 95010.457010                       # average ReadSharedReq miss latency
system.l2.ReadSharedReq_avg_miss_latency::total 95010.457010                       # average ReadSharedReq miss latency
system.l2.demand_avg_miss_latency::cpu0.data 95014.915872                       # average overall miss latency
system.l2.demand_avg_miss_latency::total 95014.915872                       # average overall miss latency
system.l2.overall_avg_miss_latency::cpu0.data 95014.915872                       # average overall miss latency
system.l2.overall_avg_miss_latency::total 95014.915872                       # average overall miss latency
system.l2.blocked_cycles::no_mshrs                  0                       # number of cycles access was blocked
system.l2.blocked_cycles::no_targets                0                       # number of cycles access was blocked
system.l2.blocked::no_mshrs                         0                       # number of cycles access was blocked
system.l2.blocked::no_targets                       0                       # number of cycles access was blocked
system.l2.avg_blocked_cycles::no_mshrs            nan                       # average number of cycles each access was blocked
system.l2.avg_blocked_cycles::no_targets          nan                       # average number of cycles each access was blocked
system.l2.writebacks::writebacks                  333                       # number of writebacks
system.l2.writebacks::total                       333                       # number of writebacks
system.l2.ReadExReq_mshr_misses::cpu0.data          240                       # number of ReadExReq MSHR misses
system.l2.ReadExReq_mshr_misses::total            240                       # number of ReadExReq MSHR misses
system.l2.ReadSharedReq_mshr_misses::cpu0.data       185904                       # number of ReadSharedReq MSHR misses
system.l2.ReadSharedReq_mshr_misses::total       185904                       # number of ReadSharedReq MSHR misses
system.l2.demand_mshr_misses::cpu0.data        186144                       # number of demand (read+write) MSHR misses
system.l2.demand_mshr_misses::total            186144                       # number of demand (read+write) MSHR misses
system.l2.overall_mshr_misses::cpu0.data       186144                       # number of overall MSHR misses
system.l2.overall_mshr_misses::total           186144                       # number of overall MSHR misses
system.l2.ReadExReq_mshr_miss_latency::cpu0.data     21232500                       # number of ReadExReq MSHR miss cycles
system.l2.ReadExReq_mshr_miss_latency::total     21232500                       # number of ReadExReq MSHR miss cycles
system.l2.ReadSharedReq_mshr_miss_latency::cpu0.data  15803784000                       # number of ReadSharedReq MSHR miss cycles
system.l2.ReadSharedReq_mshr_miss_latency::total  15803784000                       # number of ReadSharedReq MSHR miss cycles
system.l2.demand_mshr_miss_latency::cpu0.data  15825016500                       # number of demand (read+write) MSHR miss cycles
system.l2.demand_mshr_miss_latency::total  15825016500                       # number of demand (read+write) MSHR miss cycles
system.l2.overall_mshr_miss_latency::cpu0.data  15825016500                       # number of overall MSHR miss cycles
system.l2.overall_mshr_miss_latency::total  15825016500                       # number of overall MSHR miss cycles
system.l2.ReadExReq_mshr_miss_rate::cpu0.data     0.242915                       # mshr miss rate for ReadExReq accesses
system.l2.ReadExReq_mshr_miss_rate::total     0.242915                       # mshr miss rate for ReadExReq accesses
system.l2.ReadSharedReq_mshr_miss_rate::cpu0.data     0.648963                       # mshr miss rate for ReadSharedReq accesses
system.l2.ReadSharedReq_mshr_miss_rate::total     0.648963                       # mshr miss rate for ReadSharedReq accesses
system.l2.demand_mshr_miss_rate::cpu0.data     0.647568                       # mshr miss rate for demand accesses
system.l2.demand_mshr_miss_rate::total       0.647568                       # mshr miss rate for demand accesses
system.l2.overall_mshr_miss_rate::cpu0.data     0.647568                       # mshr miss rate for overall accesses
system.l2.overall_mshr_miss_rate::total      0.647568                       # mshr miss rate for overall accesses
system.l2.ReadExReq_avg_mshr_miss_latency::cpu0.data 88468.750000                       # average ReadExReq mshr miss latency
system.l2.ReadExReq_avg_mshr_miss_latency::total 88468.750000                       # average ReadExReq mshr miss latency
system.l2.ReadSharedReq_avg_mshr_miss_latency::cpu0.data 85010.457010                       # average ReadSharedReq mshr miss latency
system.l2.ReadSharedReq_avg_mshr_miss_latency::total 85010.457010                       # average ReadSharedReq mshr miss latency
system.l2.demand_avg_mshr_miss_latency::cpu0.data 85014.915872                       # average overall mshr miss latency
system.l2.demand_avg_mshr_miss_latency::total 85014.915872                       # average overall mshr miss latency
system.l2.overall_avg_mshr_miss_latency::cpu0.data 85014.915872                       # average overall mshr miss latency
system.l2.overall_avg_mshr_miss_latency::total 85014.915872                       # average overall mshr miss latency
system.membus.snoop_filter.tot_requests        372286                       # Total number of requests made to the snoop filter.
system.membus.snoop_filter.hit_single_requests       186144                       # Number of requests hitting in the snoop filter with a single holder of the requested data.
system.membus.snoop_filter.hit_multi_requests            0                       # Number of requests hitting in the snoop filter with multiple (>1) holders of the requested data.
system.membus.snoop_filter.tot_snoops               0                       # Total number of snoops made to the snoop filter.
system.membus.snoop_filter.hit_single_snoops            0                       # Number of snoops hitting in the snoop filter with a single holder of the requested data.
system.membus.snoop_filter.hit_multi_snoops            0                       # Number of snoops hitting in the snoop filter with multiple (>1) holders of the requested data.
system.membus.pwrStateResidencyTicks::UNDEFINED  15267344125                       # Cumulative time (in ticks) in various power states
system.membus.trans_dist::ReadResp             185905                       # Transaction distribution
system.membus.trans_dist::WritebackDirty          333                       # Transaction distribution
system.membus.trans_dist::CleanEvict           185809                       # Transaction distribution
system.membus.trans_dist::ReadExReq               240                       # Transaction distribution
system.membus.trans_dist::ReadExResp              240                       # Transaction distribution
system.membus.trans_dist::ReadSharedReq        185904                       # Transaction distribution
system.membus.pkt_count_system.l2.mem_side::system.mem_ctrls.port       558431                       # Packet count per connected master and slave (bytes)
system.membus.pkt_count_system.l2.mem_side::total       558431                       # Packet count per connected master and slave (bytes)
system.membus.pkt_count::total                 558431                       # Packet count per connected master and slave (bytes)
system.membus.pkt_size_system.l2.mem_side::system.mem_ctrls.port     11934592                       # Cumulative packet size per connected master and slave (bytes)
system.membus.pkt_size_system.l2.mem_side::total     11934592                       # Cumulative packet size per connected master and slave (bytes)
system.membus.pkt_size::total                11934592                       # Cumulative packet size per connected master and slave (bytes)
system.membus.snoops                                0                       # Total snoops (count)
system.membus.snoopTraffic                          0                       # Total snoop traffic (bytes)
system.membus.snoop_fanout::samples            186144                       # Request fanout histogram
system.membus.snoop_fanout::mean                    0                       # Request fanout histogram
system.membus.snoop_fanout::stdev                   0                       # Request fanout histogram
system.membus.snoop_fanout::underflows              0      0.00%      0.00% # Request fanout histogram
system.membus.snoop_fanout::0                  186144    100.00%    100.00% # Request fanout histogram
system.membus.snoop_fanout::1                       0      0.00%    100.00% # Request fanout histogram
system.membus.snoop_fanout::overflows               0      0.00%    100.00% # Request fanout histogram
system.membus.snoop_fanout::min_value               0                       # Request fanout histogram
system.membus.snoop_fanout::max_value               0                       # Request fanout histogram
system.membus.snoop_fanout::total              186144                       # Request fanout histogram
system.membus.reqLayer8.occupancy           437617000                       # Layer occupancy (ticks)
system.membus.reqLayer8.utilization               2.9                       # Layer utilization (%)
system.membus.respLayer1.occupancy         1008433250                       # Layer occupancy (ticks)
system.membus.respLayer1.utilization              6.6                       # Layer utilization (%)
system.tol2bus.snoop_filter.tot_requests       574902                       # Total number of requests made to the snoop filter.
system.tol2bus.snoop_filter.hit_single_requests       287452                       # Number of requests hitting in the snoop filter with a single holder of the requested data.
system.tol2bus.snoop_filter.hit_multi_requests          720                       # Number of requests hitting in the snoop filter with multiple (>1) holders of the requested data.
system.tol2bus.snoop_filter.tot_snoops              2                       # Total number of snoops made to the snoop filter.
system.tol2bus.snoop_filter.hit_single_snoops            2                       # Number of snoops hitting in the snoop filter with a single holder of the requested data.
system.tol2bus.snoop_filter.hit_multi_snoops            0                       # Number of snoops hitting in the snoop filter with multiple (>1) holders of the requested data.
system.tol2bus.pwrStateResidencyTicks::UNDEFINED  15267344125                       # Cumulative time (in ticks) in various power states
system.tol2bus.trans_dist::ReadResp            286463                       # Transaction distribution
system.tol2bus.trans_dist::WritebackDirty         3153                       # Transaction distribution
system.tol2bus.trans_dist::CleanEvict          470442                       # Transaction distribution
system.tol2bus.trans_dist::ReadExReq              988                       # Transaction distribution
system.tol2bus.trans_dist::ReadExResp             988                       # Transaction distribution
system.tol2bus.trans_dist::ReadSharedReq       286463                       # Transaction distribution
system.tol2bus.pkt_count_system.cpu0.dcache.mem_side::system.l2.cpu_side       862353                       # Packet count per connected master and slave (bytes)
system.tol2bus.pkt_count::total                862353                       # Packet count per connected master and slave (bytes)
system.tol2bus.pkt_size_system.cpu0.dcache.mem_side::system.l2.cpu_side     18577344                       # Cumulative packet size per connected master and slave (bytes)
system.tol2bus.pkt_size::total               18577344                       # Cumulative packet size per connected master and slave (bytes)
system.tol2bus.snoops                          186144                       # Total snoops (count)
system.tol2bus.snoopTraffic                     21312                       # Total snoop traffic (bytes)
system.tol2bus.snoop_fanout::samples           473595                       # Request fanout histogram
system.tol2bus.snoop_fanout::mean            0.001527                       # Request fanout histogram
system.tol2bus.snoop_fanout::stdev           0.039042                       # Request fanout histogram
system.tol2bus.snoop_fanout::underflows             0      0.00%      0.00% # Request fanout histogram
system.tol2bus.snoop_fanout::0                 472872     99.85%     99.85% # Request fanout histogram
system.tol2bus.snoop_fanout::1                    723      0.15%    100.00% # Request fanout histogram
system.tol2bus.snoop_fanout::2                      0      0.00%    100.00% # Request fanout histogram
system.tol2bus.snoop_fanout::3                      0      0.00%    100.00% # Request fanout histogram
system.tol2bus.snoop_fanout::4                      0      0.00%    100.00% # Request fanout histogram
system.tol2bus.snoop_fanout::5                      0      0.00%    100.00% # Request fanout histogram
system.tol2bus.snoop_fanout::6                      0      0.00%    100.00% # Request fanout histogram
system.tol2bus.snoop_fanout::7                      0      0.00%    100.00% # Request fanout histogram
system.tol2bus.snoop_fanout::8                      0      0.00%    100.00% # Request fanout histogram
system.tol2bus.snoop_fanout::9                      0      0.00%    100.00% # Request fanout histogram
system.tol2bus.snoop_fanout::10                     0      0.00%    100.00% # Request fanout histogram
system.tol2bus.snoop_fanout::11                     0      0.00%    100.00% # Request fanout histogram
system.tol2bus.snoop_fanout::12                     0      0.00%    100.00% # Request fanout histogram
system.tol2bus.snoop_fanout::13                     0      0.00%    100.00% # Request fanout histogram
system.tol2bus.snoop_fanout::14                     0      0.00%    100.00% # Request fanout histogram
system.tol2bus.snoop_fanout::15                     0      0.00%    100.00% # Request fanout histogram
system.tol2bus.snoop_fanout::16                     0      0.00%    100.00% # Request fanout histogram
system.tol2bus.snoop_fanout::overflows              0      0.00%    100.00% # Request fanout histogram
system.tol2bus.snoop_fanout::min_value              0                       # Request fanout histogram
system.tol2bus.snoop_fanout::max_value              1                       # Request fanout histogram
system.tol2bus.snoop_fanout::total             473595                       # Request fanout histogram
system.tol2bus.reqLayer0.occupancy          290271000                       # Layer occupancy (ticks)
system.tol2bus.reqLayer0.utilization              1.9                       # Layer utilization (%)
system.tol2bus.respLayer1.occupancy         431176500                       # Layer occupancy (ticks)
system.tol2bus.respLayer1.utilization             2.8                       # Layer utilization (%)

---------- End Simulation Statistics   ----------
