
---------- Begin Simulation Statistics ----------
sim_seconds                                  0.015267                       # Number of seconds simulated
sim_ticks                                 15267344125                       # Number of ticks simulated
final_tick                               1404595659500                       # Number of ticks from beginning of simulation (restored from checkpoints and never reset)
sim_freq                                 1000000000000                       # Frequency of simulated ticks
host_inst_rate                                9735810                       # Simulator instruction rate (inst/s)
host_op_rate                                 17811930                       # Simulator op (including micro ops) rate (op/s)
host_tick_rate                               47365366                       # Simulator tick rate (ticks/s)
host_mem_usage                                2331776                       # Number of bytes of host memory used
host_seconds                                   322.33                       # Real time elapsed on the host
sim_insts                                  3138156934                       # Number of instructions simulated
sim_ops                                    5741343886                       # Number of ops (including micro ops) simulated
system.voltage_domain.voltage                       1                       # Voltage in Volts
system.clk_domain.clock                          1000                       # Clock period in ticks
system.mem_ctrls.pwrStateResidencyTicks::UNDEFINED  15267344125                       # Cumulative time (in ticks) in various power states
system.mem_ctrls.bytes_read::cpu0.data         908864                       # Number of bytes read from this memory
system.mem_ctrls.bytes_read::total             908864                       # Number of bytes read from this memory
system.mem_ctrls.bytes_written::writebacks       856576                       # Number of bytes written to this memory
system.mem_ctrls.bytes_written::total          856576                       # Number of bytes written to this memory
system.mem_ctrls.num_reads::cpu0.data           14201                       # Number of read requests responded to by this memory
system.mem_ctrls.num_reads::total               14201                       # Number of read requests responded to by this memory
system.mem_ctrls.num_writes::writebacks         13384                       # Number of write requests responded to by this memory
system.mem_ctrls.num_writes::total              13384                       # Number of write requests responded to by this memory
system.mem_ctrls.bw_read::cpu0.data          59529935                       # Total read bandwidth from this memory (bytes/s)
system.mem_ctrls.bw_read::total              59529935                       # Total read bandwidth from this memory (bytes/s)
system.mem_ctrls.bw_write::writebacks        56105109                       # Write bandwidth from this memory (bytes/s)
system.mem_ctrls.bw_write::total             56105109                       # Write bandwidth from this memory (bytes/s)
system.mem_ctrls.bw_total::writebacks        56105109                       # Total bandwidth to/from this memory (bytes/s)
system.mem_ctrls.bw_total::cpu0.data         59529935                       # Total bandwidth to/from this memory (bytes/s)
system.mem_ctrls.bw_total::total            115635043                       # Total bandwidth to/from this memory (bytes/s)
system.mem_ctrls.readReqs                       14201                       # Number of read requests accepted
system.mem_ctrls.writeReqs                      13384                       # Number of write requests accepted
system.mem_ctrls.readBursts                     14201                       # Number of DRAM read bursts, including those serviced by the write queue
system.mem_ctrls.writeBursts                    13384                       # Number of DRAM write bursts, including those merged in the write queue
system.mem_ctrls.bytesReadDRAM                 908864                       # Total number of bytes read from DRAM
system.mem_ctrls.bytesReadWrQ                       0                       # Total number of bytes read from write queue
system.mem_ctrls.bytesWritten                  856000                       # Total number of bytes written to DRAM
system.mem_ctrls.bytesReadSys                  908864                       # Total read bytes from the system interface side
system.mem_ctrls.bytesWrittenSys               856576                       # Total written bytes from the system interface side
system.mem_ctrls.servicedByWrQ                      0                       # Number of DRAM read bursts serviced by the write queue
system.mem_ctrls.mergedWrBursts                     0                       # Number of DRAM write bursts merged with an existing one
system.mem_ctrls.neitherReadNorWriteReqs            0                       # Number of requests that are neither read nor write
system.mem_ctrls.perBankRdBursts::0               905                       # Per bank write bursts
system.mem_ctrls.perBankRdBursts::1               896                       # Per bank write bursts
system.mem_ctrls.perBankRdBursts::2               896                       # Per bank write bursts
system.mem_ctrls.perBankRdBursts::3               896                       # Per bank write bursts
system.mem_ctrls.perBankRdBursts::4               896                       # Per bank write bursts
system.mem_ctrls.perBankRdBursts::5               919                       # Per bank write bursts
system.mem_ctrls.perBankRdBursts::6               827                       # Per bank write bursts
system.mem_ctrls.perBankRdBursts::7               863                       # Per bank write bursts
system.mem_ctrls.perBankRdBursts::8               896                       # Per bank write bursts
system.mem_ctrls.perBankRdBursts::9               896                       # Per bank write bursts
system.mem_ctrls.perBankRdBursts::10              807                       # Per bank write bursts
system.mem_ctrls.perBankRdBursts::11              920                       # Per bank write bursts
system.mem_ctrls.perBankRdBursts::12              896                       # Per bank write bursts
system.mem_ctrls.perBankRdBursts::13              896                       # Per bank write bursts
system.mem_ctrls.perBankRdBursts::14              896                       # Per bank write bursts
system.mem_ctrls.perBankRdBursts::15              896                       # Per bank write bursts
system.mem_ctrls.perBankWrBursts::0               739                       # Per bank write bursts
system.mem_ctrls.perBankWrBursts::1               768                       # Per bank write bursts
system.mem_ctrls.perBankWrBursts::2               884                       # Per bank write bursts
system.mem_ctrls.perBankWrBursts::3               895                       # Per bank write bursts
system.mem_ctrls.perBankWrBursts::4               896                       # Per bank write bursts
system.mem_ctrls.perBankWrBursts::5               898                       # Per bank write bursts
system.mem_ctrls.perBankWrBursts::6               827                       # Per bank write bursts
system.mem_ctrls.perBankWrBursts::7               864                       # Per bank write bursts
system.mem_ctrls.perBankWrBursts::8               896                       # Per bank write bursts
system.mem_ctrls.perBankWrBursts::9               896                       # Per bank write bursts
system.mem_ctrls.perBankWrBursts::10              804                       # Per bank write bursts
system.mem_ctrls.perBankWrBursts::11              892                       # Per bank write bursts
system.mem_ctrls.perBankWrBursts::12              825                       # Per bank write bursts
system.mem_ctrls.perBankWrBursts::13              768                       # Per bank write bursts
system.mem_ctrls.perBankWrBursts::14              768                       # Per bank write bursts
system.mem_ctrls.perBankWrBursts::15              755                       # Per bank write bursts
system.mem_ctrls.numRdRetry                         0                       # Number of times read queue was full causing retry
system.mem_ctrls.numWrRetry                         0                       # Number of times write queue was full causing retry
system.mem_ctrls.totGap                   15267537000                       # Total gap between requests
system.mem_ctrls.readPktSize::0                     0                       # Read request sizes (log2)
system.mem_ctrls.readPktSize::1                     0                       # Read request sizes (log2)
system.mem_ctrls.readPktSize::2                     0                       # Read request sizes (log2)
system.mem_ctrls.readPktSize::3                     0                       # Read request sizes (log2)
system.mem_ctrls.readPktSize::4                     0                       # Read request sizes (log2)
system.mem_ctrls.readPktSize::5                     0                       # Read request sizes (log2)
system.mem_ctrls.readPktSize::6                 14201                       # Read request sizes (log2)
system.mem_ctrls.writePktSize::0                    0                       # Write request sizes (log2)
system.mem_ctrls.writePktSize::1                    0                       # Write request sizes (log2)
system.mem_ctrls.writePktSize::2                    0                       # Write request sizes (log2)
system.mem_ctrls.writePktSize::3                    0                       # Write request sizes (log2)
system.mem_ctrls.writePktSize::4                    0                       # Write request sizes (log2)
system.mem_ctrls.writePktSize::5                    0                       # Write request sizes (log2)
system.mem_ctrls.writePktSize::6                13384                       # Write request sizes (log2)
system.mem_ctrls.rdQLenPdf::0                   14201                       # What read queue length does an incoming req see
system.mem_ctrls.rdQLenPdf::1                       0                       # What read queue length does an incoming req see
system.mem_ctrls.rdQLenPdf::2                       0                       # What read queue length does an incoming req see
system.mem_ctrls.rdQLenPdf::3                       0                       # What read queue length does an incoming req see
system.mem_ctrls.rdQLenPdf::4                       0                       # What read queue length does an incoming req see
system.mem_ctrls.rdQLenPdf::5                       0                       # What read queue length does an incoming req see
system.mem_ctrls.rdQLenPdf::6                       0                       # What read queue length does an incoming req see
system.mem_ctrls.rdQLenPdf::7                       0                       # What read queue length does an incoming req see
system.mem_ctrls.rdQLenPdf::8                       0                       # What read queue length does an incoming req see
system.mem_ctrls.rdQLenPdf::9                       0                       # What read queue length does an incoming req see
system.mem_ctrls.rdQLenPdf::10                      0                       # What read queue length does an incoming req see
system.mem_ctrls.rdQLenPdf::11                      0                       # What read queue length does an incoming req see
system.mem_ctrls.rdQLenPdf::12                      0                       # What read queue length does an incoming req see
system.mem_ctrls.rdQLenPdf::13                      0                       # What read queue length does an incoming req see
system.mem_ctrls.rdQLenPdf::14                      0                       # What read queue length does an incoming req see
system.mem_ctrls.rdQLenPdf::15                      0                       # What read queue length does an incoming req see
system.mem_ctrls.rdQLenPdf::16                      0                       # What read queue length does an incoming req see
system.mem_ctrls.rdQLenPdf::17                      0                       # What read queue length does an incoming req see
system.mem_ctrls.rdQLenPdf::18                      0                       # What read queue length does an incoming req see
system.mem_ctrls.rdQLenPdf::19                      0                       # What read queue length does an incoming req see
system.mem_ctrls.rdQLenPdf::20                      0                       # What read queue length does an incoming req see
system.mem_ctrls.rdQLenPdf::21                      0                       # What read queue length does an incoming req see
system.mem_ctrls.rdQLenPdf::22                      0                       # What read queue length does an incoming req see
system.mem_ctrls.rdQLenPdf::23                      0                       # What read queue length does an incoming req see
system.mem_ctrls.rdQLenPdf::24                      0                       # What read queue length does an incoming req see
system.mem_ctrls.rdQLenPdf::25                      0                       # What read queue length does an incoming req see
system.mem_ctrls.rdQLenPdf::26                      0                       # What read queue length does an incoming req see
system.mem_ctrls.rdQLenPdf::27                      0                       # What read queue length does an incoming req see
system.mem_ctrls.rdQLenPdf::28                      0                       # What read queue length does an incoming req see
system.mem_ctrls.rdQLenPdf::29                      0                       # What read queue length does an incoming req see
system.mem_ctrls.rdQLenPdf::30                      0                       # What read queue length does an incoming req see
system.mem_ctrls.rdQLenPdf::31                      0                       # What read queue length does an incoming req see
system.mem_ctrls.wrQLenPdf::0                       0                       # What write queue length does an incoming req see
system.mem_ctrls.wrQLenPdf::1                       0                       # What write queue length does an incoming req see
system.mem_ctrls.wrQLenPdf::2                       0                       # What write queue length does an incoming req see
system.mem_ctrls.wrQLenPdf::3                       0                       # What write queue length does an incoming req see
system.mem_ctrls.wrQLenPdf::4                       0                       # What write queue length does an incoming req see
system.mem_ctrls.wrQLenPdf::5                       0                       # What write queue length does an incoming req see
system.mem_ctrls.wrQLenPdf::6                       0                       # What write queue length does an incoming req see
system.mem_ctrls.wrQLenPdf::7                       0                       # What write queue length does an incoming req see
system.mem_ctrls.wrQLenPdf::8                       0                       # What write queue length does an incoming req see
system.mem_ctrls.wrQLenPdf::9                       0                       # What write queue length does an incoming req see
system.mem_ctrls.wrQLenPdf::10                      0                       # What write queue length does an incoming req see
system.mem_ctrls.wrQLenPdf::11                      0                       # What write queue length does an incoming req see
system.mem_ctrls.wrQLenPdf::12                      0                       # What write queue length does an incoming req see
system.mem_ctrls.wrQLenPdf::13                      0                       # What write queue length does an incoming req see
system.mem_ctrls.wrQLenPdf::14                      0                       # What write queue length does an incoming req see
system.mem_ctrls.wrQLenPdf::15                    726                       # What write queue length does an incoming req see
system.mem_ctrls.wrQLenPdf::16                    729                       # What write queue length does an incoming req see
system.mem_ctrls.wrQLenPdf::17                    745                       # What write queue length does an incoming req see
system.mem_ctrls.wrQLenPdf::18                    745                       # What write queue length does an incoming req see
system.mem_ctrls.wrQLenPdf::19                    745                       # What write queue length does an incoming req see
system.mem_ctrls.wrQLenPdf::20                    745                       # What write queue length does an incoming req see
system.mem_ctrls.wrQLenPdf::21                    745                       # What write queue length does an incoming req see
system.mem_ctrls.wrQLenPdf::22                    745                       # What write queue length does an incoming req see
system.mem_ctrls.wrQLenPdf::23                    746                       # What write queue length does an incoming req see
system.mem_ctrls.wrQLenPdf::24                    746                       # What write queue length does an incoming req see
system.mem_ctrls.wrQLenPdf::25                    746                       # What write queue length does an incoming req see
system.mem_ctrls.wrQLenPdf::26                    746                       # What write queue length does an incoming req see
system.mem_ctrls.wrQLenPdf::27                    746                       # What write queue length does an incoming req see
system.mem_ctrls.wrQLenPdf::28                    746                       # What write queue length does an incoming req see
system.mem_ctrls.wrQLenPdf::29                    746                       # What write queue length does an incoming req see
system.mem_ctrls.wrQLenPdf::30                    746                       # What write queue length does an incoming req see
system.mem_ctrls.wrQLenPdf::31                    746                       # What write queue length does an incoming req see
system.mem_ctrls.wrQLenPdf::32                    745                       # What write queue length does an incoming req see
system.mem_ctrls.wrQLenPdf::33                      0                       # What write queue length does an incoming req see
system.mem_ctrls.wrQLenPdf::34                      0                       # What write queue length does an incoming req see
system.mem_ctrls.wrQLenPdf::35                      0                       # What write queue length does an incoming req see
system.mem_ctrls.wrQLenPdf::36                      0                       # What write queue length does an incoming req see
system.mem_ctrls.wrQLenPdf::37                      0                       # What write queue length does an incoming req see
system.mem_ctrls.wrQLenPdf::38                      0                       # What write queue length does an incoming req see
system.mem_ctrls.wrQLenPdf::39                      0                       # What write queue length does an incoming req see
system.mem_ctrls.wrQLenPdf::40                      0                       # What write queue length does an incoming req see
system.mem_ctrls.wrQLenPdf::41                      0                       # What write queue length does an incoming req see
system.mem_ctrls.wrQLenPdf::42                      0                       # What write queue length does an incoming req see
system.mem_ctrls.wrQLenPdf::43                      0                       # What write queue length does an incoming req see
system.mem_ctrls.wrQLenPdf::44                      0                       # What write queue length does an incoming req see
system.mem_ctrls.wrQLenPdf::45                      0                       # What write queue length does an incoming req see
system.mem_ctrls.wrQLenPdf::46                      0                       # What write queue length does an incoming req see
system.mem_ctrls.wrQLenPdf::47                      0                       # What write queue length does an incoming req see
system.mem_ctrls.wrQLenPdf::48                      0                       # What write queue length does an incoming req see
system.mem_ctrls.wrQLenPdf::49                      0                       # What write queue length does an incoming req see
system.mem_ctrls.wrQLenPdf::50                      0                       # What write queue length does an incoming req see
system.mem_ctrls.wrQLenPdf::51                      0                       # What write queue length does an incoming req see
system.mem_ctrls.wrQLenPdf::52                      0                       # What write queue length does an incoming req see
system.mem_ctrls.wrQLenPdf::53                      0                       # What write queue length does an incoming req see
system.mem_ctrls.wrQLenPdf::54                      0                       # What write queue length does an incoming req see
system.mem_ctrls.wrQLenPdf::55                      0                       # What write queue length does an incoming req see
system.mem_ctrls.wrQLenPdf::56                      0                       # What write queue length does an incoming req see
system.mem_ctrls.wrQLenPdf::57                      0                       # What write queue length does an incoming req see
system.mem_ctrls.wrQLenPdf::58                      0                       # What write queue length does an incoming req see
system.mem_ctrls.wrQLenPdf::59                      0                       # What write queue length does an incoming req see
system.mem_ctrls.wrQLenPdf::60                      0                       # What write queue length does an incoming req see
system.mem_ctrls.wrQLenPdf::61                      0                       # What write queue length does an incoming req see
system.mem_ctrls.wrQLenPdf::62                      0                       # What write queue length does an incoming req see
system.mem_ctrls.wrQLenPdf::63                      0                       # What write queue length does an incoming req see
system.mem_ctrls.bytesPerActivate::samples         5944                       # Bytes accessed per row activation
system.mem_ctrls.bytesPerActivate::mean    296.958277                       # Bytes accessed per row activation
system.mem_ctrls.bytesPerActivate::gmean   184.345013                       # Bytes accessed per row activation
system.mem_ctrls.bytesPerActivate::stdev   291.846114                       # Bytes accessed per row activation
system.mem_ctrls.bytesPerActivate::0-127         2367     39.82%     39.82% # Bytes accessed per row activation
system.mem_ctrls.bytesPerActivate::128-255          800     13.46%     53.28% # Bytes accessed per row activation
system.mem_ctrls.bytesPerActivate::256-383          577      9.71%     62.99% # Bytes accessed per row activation
system.mem_ctrls.bytesPerActivate::384-511         1445     24.31%     87.30% # Bytes accessed per row activation
system.mem_ctrls.bytesPerActivate::512-639           29      0.49%     87.79% # Bytes accessed per row activation
system.mem_ctrls.bytesPerActivate::640-767           63      1.06%     88.85% # Bytes accessed per row activation
system.mem_ctrls.bytesPerActivate::768-895           52      0.87%     89.72% # Bytes accessed per row activation
system.mem_ctrls.bytesPerActivate::896-1023           88      1.48%     91.20% # Bytes accessed per row activation
system.mem_ctrls.bytesPerActivate::1024-1151          523      8.80%    100.00% # Bytes accessed per row activation
system.mem_ctrls.bytesPerActivate::total         5944                       # Bytes accessed per row activation
system.mem_ctrls.rdPerTurnAround::samples          745                       # Reads before turning the bus around for writes
system.mem_ctrls.rdPerTurnAround::mean      19.049664                       # Reads before turning the bus around for writes
system.mem_ctrls.rdPerTurnAround::gmean     18.352419                       # Reads before turning the bus around for writes
system.mem_ctrls.rdPerTurnAround::stdev     12.104560                       # Reads before turning the bus around for writes
system.mem_ctrls.rdPerTurnAround::16-23           725     97.32%     97.32% # Reads before turning the bus around for writes
system.mem_ctrls.rdPerTurnAround::24-31            13      1.74%     99.06% # Reads before turning the bus around for writes
system.mem_ctrls.rdPerTurnAround::32-39             1      0.13%     99.19% # Reads before turning the bus around for writes
system.mem_ctrls.rdPerTurnAround::56-63             1      0.13%     99.33% # Reads before turning the bus around for writes
system.mem_ctrls.rdPerTurnAround::64-71             1      0.13%     99.46% # Reads before turning the bus around for writes
system.mem_ctrls.rdPerTurnAround::72-79             1      0.13%     99.60% # Reads before turning the bus around for writes
system.mem_ctrls.rdPerTurnAround::192-199            1      0.13%     99.73% # Reads before turning the bus around for writes
system.mem_ctrls.rdPerTurnAround::200-207            2      0.27%    100.00% # Reads before turning the bus around for writes
system.mem_ctrls.rdPerTurnAround::total           745                       # Reads before turning the bus around for writes
system.mem_ctrls.wrPerTurnAround::samples          745                       # Writes before turning the bus around for reads
system.mem_ctrls.wrPerTurnAround::mean      17.953020                       # Writes before turning the bus around for reads
system.mem_ctrls.wrPerTurnAround::gmean     17.950393                       # Writes before turning the bus around for reads
system.mem_ctrls.wrPerTurnAround::stdev      0.296384                       # Writes before turning the bus around for reads
system.mem_ctrls.wrPerTurnAround::16               16      2.15%      2.15% # Writes before turning the bus around for reads
system.mem_ctrls.wrPerTurnAround::17                3      0.40%      2.55% # Writes before turning the bus around for reads
system.mem_ctrls.wrPerTurnAround::18              726     97.45%    100.00% # Writes before turning the bus around for reads
system.mem_ctrls.wrPerTurnAround::total           745                       # Writes before turning the bus around for reads
system.mem_ctrls.totQLat                    377944250                       # Total ticks spent queuing
system.mem_ctrls.totMemAccLat               644213000                       # Total ticks spent from burst creation until serviced by the DRAM
system.mem_ctrls.totBusLat                   71005000                       # Total ticks spent in databus transfers
system.mem_ctrls.avgQLat                     26613.92                       # Average queueing delay per DRAM burst
system.mem_ctrls.avgBusLat                    5000.00                       # Average bus latency per DRAM burst
system.mem_ctrls.avgMemAccLat                45363.92                       # Average memory access latency per DRAM burst
system.mem_ctrls.avgRdBW                        59.53                       # Average DRAM read bandwidth in MiByte/s
system.mem_ctrls.avgWrBW                        56.07                       # Average achieved write bandwidth in MiByte/s
system.mem_ctrls.avgRdBWSys                     59.53                       # Average system read bandwidth in MiByte/s
system.mem_ctrls.avgWrBWSys                     56.11                       # Average system write bandwidth in MiByte/s
system.mem_ctrls.peakBW                      12800.00                       # Theoretical peak bandwidth in MiByte/s
system.mem_ctrls.busUtil                         0.90                       # Data bus utilization in percentage
system.mem_ctrls.busUtilRead                     0.47                       # Data bus utilization in percentage for reads
system.mem_ctrls.busUtilWrite                    0.44                       # Data bus utilization in percentage for writes
system.mem_ctrls.avgRdQLen                       1.00                       # Average read queue length when enqueuing
system.mem_ctrls.avgWrQLen                      24.63                       # Average write queue length when enqueuing
system.mem_ctrls.readRowHits                    10300                       # Number of row buffer hits during reads
system.mem_ctrls.writeRowHits                   11334                       # Number of row buffer hits during writes
system.mem_ctrls.readRowHitRate                 72.53                       # Row buffer hit rate for reads
system.mem_ctrls.writeRowHitRate                84.68                       # Row buffer hit rate for writes
system.mem_ctrls.avgGap                     553472.43                       # Average gap between requests
system.mem_ctrls.pageHitRate                    78.43                       # Row buffer hit rate, read and write combined
system.mem_ctrls_0.actEnergy                 23804760                       # Energy for activate commands per rank (pJ)
system.mem_ctrls_0.preEnergy                 12656325                       # Energy for precharge commands per rank (pJ)
system.mem_ctrls_0.readEnergy                50679720                       # Energy for read commands per rank (pJ)
system.mem_ctrls_0.writeEnergy               35344620                       # Energy for write commands per rank (pJ)
system.mem_ctrls_0.refreshEnergy         1299348960.000000                       # Energy for refresh commands per rank (pJ)
system.mem_ctrls_0.actBackEnergy            792452190                       # Energy for active background per rank (pJ)
system.mem_ctrls_0.preBackEnergy             65970720                       # Energy for precharge background per rank (pJ)
system.mem_ctrls_0.actPowerDownEnergy      3630300360                       # Energy for active power-down per rank (pJ)
system.mem_ctrls_0.prePowerDownEnergy      1518278880                       # Energy for precharge power-down per rank (pJ)
system.mem_ctrls_0.selfRefreshEnergy        546705120                       # Energy for self refresh per rank (pJ)
system.mem_ctrls_0.totalEnergy             7975541655                       # Total energy per rank (pJ)
system.mem_ctrls_0.averagePower            522.392211                       # Core power per rank (mW)
system.mem_ctrls_0.totalIdleTime          13356948625                       # Total Idle time Per DRAM Rank
system.mem_ctrls_0.memoryStateTime::IDLE    116872000                       # Time in different power states
system.mem_ctrls_0.memoryStateTime::REF     551824000                       # Time in different power states
system.mem_ctrls_0.memoryStateTime::SREF   1442673500                       # Time in different power states
system.mem_ctrls_0.memoryStateTime::PRE_PDN   3953690250                       # Time in different power states
system.mem_ctrls_0.memoryStateTime::ACT    1241024250                       # Time in different power states
system.mem_ctrls_0.memoryStateTime::ACT_PDN   7961260125                       # Time in different power states
system.mem_ctrls_1.actEnergy                 18621120                       # Energy for activate commands per rank (pJ)
system.mem_ctrls_1.preEnergy                  9901155                       # Energy for precharge commands per rank (pJ)
system.mem_ctrls_1.readEnergy                50715420                       # Energy for read commands per rank (pJ)
system.mem_ctrls_1.writeEnergy               34472880                       # Energy for write commands per rank (pJ)
system.mem_ctrls_1.refreshEnergy         1088527440.000000                       # Energy for refresh commands per rank (pJ)
system.mem_ctrls_1.actBackEnergy            611061660                       # Energy for active background per rank (pJ)
system.mem_ctrls_1.preBackEnergy             50656800                       # Energy for precharge background per rank (pJ)
system.mem_ctrls_1.actPowerDownEnergy      3429918570                       # Energy for active power-down per rank (pJ)
system.mem_ctrls_1.prePowerDownEnergy      1059468960                       # Energy for precharge power-down per rank (pJ)
system.mem_ctrls_1.selfRefreshEnergy        998681640                       # Energy for self refresh per rank (pJ)
system.mem_ctrls_1.totalEnergy             7352368965                       # Total energy per rank (pJ)
system.mem_ctrls_1.averagePower            481.574851                       # Core power per rank (mW)
system.mem_ctrls_1.totalIdleTime          13790971625                       # Total Idle time Per DRAM Rank
system.mem_ctrls_1.memoryStateTime::IDLE     82242000                       # Time in different power states
system.mem_ctrls_1.memoryStateTime::REF     462200000                       # Time in different power states
system.mem_ctrls_1.memoryStateTime::SREF   3513826500                       # Time in different power states
system.mem_ctrls_1.memoryStateTime::PRE_PDN   2758900000                       # Time in different power states
system.mem_ctrls_1.memoryStateTime::ACT     928531500                       # Time in different power states
system.mem_ctrls_1.memoryStateTime::ACT_PDN   7521644125                       # Time in different power states
system.pwrStateResidencyTicks::UNDEFINED  15267344125                       # Cumulative time (in ticks) in various power states
system.cpu0.branchPred.lookups                5245756                       # Number of BP lookups
system.cpu0.branchPred.condPredicted          5245756                       # Number of conditional branches predicted
system.cpu0.branchPred.condIncorrect           108668                       # Number of conditional branches incorrect
system.cpu0.branchPred.BTBLookups             3577198                       # Number of BTB lookups
system.cpu0.branchPred.BTBHits                      0                       # Number of BTB hits
system.cpu0.branchPred.BTBCorrect                   0                       # Number of correct BTB predictions (this stat may not work properly.
system.cpu0.branchPred.BTBHitPct             0.000000                       # BTB Hit Percentage
system.cpu0.branchPred.usedRAS                 730194                       # Number of times the RAS was used to get a target.
system.cpu0.branchPred.RASInCorrect                 3                       # Number of incorrect RAS predictions.
system.cpu0.branchPred.indirectLookups        3577198                       # Number of indirect predictor lookups.
system.cpu0.branchPred.indirectHits           2521018                       # Number of indirect target hits.
system.cpu0.branchPred.indirectMisses         1056180                       # Number of indirect misses.
system.cpu0.branchPredindirectMispredicted            4                       # Number of mispredicted indirect branches.
system.cpu_voltage_domain.voltage                   1                       # Voltage in Volts
system.cpu_clk_domain.clock                       500                       # Clock period in ticks
system.cpu0.dtb.walker.pwrStateResidencyTicks::UNDEFINED  15267344125                       # Cumulative time (in ticks) in various power states
system.cpu0.dtb.rdAccesses                    8900015                       # TLB accesses on read requests
system.cpu0.dtb.wrAccesses                    2092262                       # TLB accesses on write requests
system.cpu0.dtb.rdMisses                          231                       # TLB misses on read requests
system.cpu0.dtb.wrMisses                            0                       # TLB misses on write requests
system.cpu0.apic_clk_domain.clock                8000                       # Clock period in ticks
system.cpu0.interrupts.pwrStateResidencyTicks::UNDEFINED  15267344125                       # Cumulative time (in ticks) in various power states
system.cpu0.itb.walker.pwrStateResidencyTicks::UNDEFINED  15267344125                       # Cumulative time (in ticks) in various power states
system.cpu0.itb.rdAccesses                          0                       # TLB accesses on read requests
system.cpu0.itb.wrAccesses                    6268725                       # TLB accesses on write requests
system.cpu0.itb.rdMisses                            0                       # TLB misses on read requests
system.cpu0.itb.wrMisses                            0                       # TLB misses on write requests
system.cpu0.workload.numSyscalls                    0                       # Number of system calls
system.cpu0.pwrStateResidencyTicks::ON    15267344125                       # Cumulative time (in ticks) in various power states
system.cpu0.numCycles                        30534689                       # number of cpu cycles simulated
system.cpu0.numWorkItemsStarted                     0                       # number of work items this cpu started
system.cpu0.numWorkItemsCompleted                   0                       # number of work items this cpu completed
system.cpu0.fetch.icacheStallCycles           6322953                       # Number of cycles fetch is stalled on an Icache miss
system.cpu0.fetch.Insts                      46357242                       # Number of instructions fetch has processed
system.cpu0.fetch.Branches                    5245756                       # Number of branches that fetch encountered
system.cpu0.fetch.predictedBranches           3251212                       # Number of branches that fetch has predicted taken
system.cpu0.fetch.Cycles                     24102967                       # Number of cycles fetch has run and was not squashing or blocked
system.cpu0.fetch.SquashCycles                 217538                       # Number of cycles fetch has spent squashing
system.cpu0.fetch.CacheLines                  6268725                       # Number of cache lines fetched
system.cpu0.fetch.IcacheSquashes                54516                       # Number of outstanding Icache misses that were squashed
system.cpu0.fetch.rateDist::samples          30534689                       # Number of instructions fetched each cycle (Total)
system.cpu0.fetch.rateDist::mean             2.652624                       # Number of instructions fetched each cycle (Total)
system.cpu0.fetch.rateDist::stdev            3.368949                       # Number of instructions fetched each cycle (Total)
system.cpu0.fetch.rateDist::underflows              0      0.00%      0.00% # Number of instructions fetched each cycle (Total)
system.cpu0.fetch.rateDist::0                16795810     55.01%     55.01% # Number of instructions fetched each cycle (Total)
system.cpu0.fetch.rateDist::1                  732991      2.40%     57.41% # Number of instructions fetched each cycle (Total)
system.cpu0.fetch.rateDist::2                 1660544      5.44%     62.84% # Number of instructions fetched each cycle (Total)
system.cpu0.fetch.rateDist::3                  659188      2.16%     65.00% # Number of instructions fetched each cycle (Total)
system.cpu0.fetch.rateDist::4                  973283      3.19%     68.19% # Number of instructions fetched each cycle (Total)
system.cpu0.fetch.rateDist::5                 1540720      5.05%     73.24% # Number of instructions fetched each cycle (Total)
system.cpu0.fetch.rateDist::6                  565028      1.85%     75.09% # Number of instructions fetched each cycle (Total)
system.cpu0.fetch.rateDist::7                  878509      2.88%     77.96% # Number of instructions fetched each cycle (Total)
system.cpu0.fetch.rateDist::8                 6728616     22.04%    100.00% # Number of instructions fetched each cycle (Total)
system.cpu0.fetch.rateDist::overflows               0      0.00%    100.00% # Number of instructions fetched each cycle (Total)
system.cpu0.fetch.rateDist::min_value               0                       # Number of instructions fetched each cycle (Total)
system.cpu0.fetch.rateDist::max_value               8                       # Number of instructions fetched each cycle (Total)
system.cpu0.fetch.rateDist::total            30534689                       # Number of instructions fetched each cycle (Total)
system.cpu0.fetch.branchRate                 0.171797                       # Number of branch fetches per cycle
system.cpu0.fetch.rate                       1.518183                       # Number of inst fetches per cycle
system.cpu0.decode.IdleCycles                 4130055                       # Number of cycles decode is idle
system.cpu0.decode.BlockedCycles             15771519                       # Number of cycles decode is blocked
system.cpu0.decode.RunCycles                  6204914                       # Number of cycles decode is running
system.cpu0.decode.UnblockCycles              4319432                       # Number of cycles decode is unblocking
system.cpu0.decode.SquashCycles                108769                       # Number of cycles decode is squashing
system.cpu0.decode.DecodedInsts              77439997                       # Number of instructions handled by decode
system.cpu0.rename.SquashCycles                108769                       # Number of cycles rename is squashing
system.cpu0.rename.IdleCycles                 5829369                       # Number of cycles rename is idle
system.cpu0.rename.BlockCycles                5723444                       # Number of cycles rename is blocking
system.cpu0.rename.serializeStallCycles             0                       # count of cycles rename stalled for serializing inst
system.cpu0.rename.RunCycles                  8765975                       # Number of cycles rename is running
system.cpu0.rename.UnblockCycles             10107132                       # Number of cycles rename is unblocking
system.cpu0.rename.RenamedInsts              76945992                       # Number of instructions processed by rename
system.cpu0.rename.ROBFullEvents               199633                       # Number of times rename has blocked due to ROB full
system.cpu0.rename.IQFullEvents               9038604                       # Number of times rename has blocked due to IQ full
system.cpu0.rename.RenamedOperands           82769074                       # Number of destination operands rename has renamed
system.cpu0.rename.RenameLookups            182786603                       # Number of register rename lookups that rename has made
system.cpu0.rename.int_rename_lookups        60153008                       # Number of integer rename lookups
system.cpu0.rename.fp_rename_lookups         75032259                       # Number of floating rename lookups
system.cpu0.rename.CommittedMaps             70289653                       # Number of HB maps that are committed
system.cpu0.rename.UndoneMaps                12479468                       # Number of HB maps that are undone due to squashing
system.cpu0.rename.serializingInsts                 0                       # count of serializing insts renamed
system.cpu0.rename.tempSerializingInsts             0                       # count of temporary serializing insts renamed
system.cpu0.rename.skidInsts                 23198017                       # count of insts added to the skid buffer
system.cpu0.memDep0.insertedLoads             9493653                       # Number of loads inserted to the mem dependence unit.
system.cpu0.memDep0.insertedStores            2094533                       # Number of stores inserted to the mem dependence unit.
system.cpu0.memDep0.conflictingLoads           424292                       # Number of conflicting loads.
system.cpu0.memDep0.conflictingStores          122896                       # Number of conflicting stores.
system.cpu0.iq.iqInstsAdded                  76276529                       # Number of instructions added to the IQ (excludes non-spec)
system.cpu0.iq.iqInstsIssued                 70608650                       # Number of instructions issued
system.cpu0.iq.iqSquashedInstsIssued                2                       # Number of squashed instructions issued
system.cpu0.iq.iqSquashedInstsExamined       10582844                       # Number of squashed instructions iterated over during squash; mainly for profiling
system.cpu0.iq.iqSquashedOperandsExamined     15252668                       # Number of squashed operands that are examined and possibly removed from graph
system.cpu0.iq.issued_per_cycle::samples     30534689                       # Number of insts issued each cycle
system.cpu0.iq.issued_per_cycle::mean        2.312408                       # Number of insts issued each cycle
system.cpu0.iq.issued_per_cycle::stdev       1.959184                       # Number of insts issued each cycle
system.cpu0.iq.issued_per_cycle::underflows            0      0.00%      0.00% # Number of insts issued each cycle
system.cpu0.iq.issued_per_cycle::0            6403150     20.97%     20.97% # Number of insts issued each cycle
system.cpu0.iq.issued_per_cycle::1            6095378     19.96%     40.93% # Number of insts issued each cycle
system.cpu0.iq.issued_per_cycle::2            5639076     18.47%     59.40% # Number of insts issued each cycle
system.cpu0.iq.issued_per_cycle::3            4845011     15.87%     75.27% # Number of insts issued each cycle
system.cpu0.iq.issued_per_cycle::4            2963768      9.71%     84.97% # Number of insts issued each cycle
system.cpu0.iq.issued_per_cycle::5            1971108      6.46%     91.43% # Number of insts issued each cycle
system.cpu0.iq.issued_per_cycle::6            1623265      5.32%     96.74% # Number of insts issued each cycle
system.cpu0.iq.issued_per_cycle::7             701579      2.30%     99.04% # Number of insts issued each cycle
system.cpu0.iq.issued_per_cycle::8             292354      0.96%    100.00% # Number of insts issued each cycle
system.cpu0.iq.issued_per_cycle::overflows            0      0.00%    100.00% # Number of insts issued each cycle
system.cpu0.iq.issued_per_cycle::min_value            0                       # Number of insts issued each cycle
system.cpu0.iq.issued_per_cycle::max_value            8                       # Number of insts issued each cycle
system.cpu0.iq.issued_per_cycle::total       30534689                       # Number of insts issued each cycle
system.cpu0.iq.fu_full::No_OpClass                  0      0.00%      0.00% # attempts to use FU when none available
system.cpu0.iq.fu_full::IntAlu                     14      0.01%      0.01% # attempts to use FU when none available
system.cpu0.iq.fu_full::IntMult                     0      0.00%      0.01% # attempts to use FU when none available
system.cpu0.iq.fu_full::IntDiv                      0      0.00%      0.01% # attempts to use FU when none available
system.cpu0.iq.fu_full::FloatAdd               105975     99.82%     99.83% # attempts to use FU when none available
system.cpu0.iq.fu_full::FloatCmp                    0      0.00%     99.83% # attempts to use FU when none available
system.cpu0.iq.fu_full::FloatCvt                    0      0.00%     99.83% # attempts to use FU when none available
system.cpu0.iq.fu_full::FloatMult                   0      0.00%     99.83% # attempts to use FU when none available
system.cpu0.iq.fu_full::FloatMultAcc                0      0.00%     99.83% # attempts to use FU when none available
system.cpu0.iq.fu_full::FloatDiv                    0      0.00%     99.83% # attempts to use FU when none available
system.cpu0.iq.fu_full::FloatMisc                   0      0.00%     99.83% # attempts to use FU when none available
system.cpu0.iq.fu_full::FloatSqrt                   0      0.00%     99.83% # attempts to use FU when none available
system.cpu0.iq.fu_full::SimdAdd                     0      0.00%     99.83% # attempts to use FU when none available
system.cpu0.iq.fu_full::SimdAddAcc                  0      0.00%     99.83% # attempts to use FU when none available
system.cpu0.iq.fu_full::SimdAlu                     0      0.00%     99.83% # attempts to use FU when none available
system.cpu0.iq.fu_full::SimdCmp                     0      0.00%     99.83% # attempts to use FU when none available
system.cpu0.iq.fu_full::SimdCvt                     0      0.00%     99.83% # attempts to use FU when none available
system.cpu0.iq.fu_full::SimdMisc                    0      0.00%     99.83% # attempts to use FU when none available
system.cpu0.iq.fu_full::SimdMult                    0      0.00%     99.83% # attempts to use FU when none available
system.cpu0.iq.fu_full::SimdMultAcc                 0      0.00%     99.83% # attempts to use FU when none available
system.cpu0.iq.fu_full::SimdShift                   0      0.00%     99.83% # attempts to use FU when none available
system.cpu0.iq.fu_full::SimdShiftAcc                0      0.00%     99.83% # attempts to use FU when none available
system.cpu0.iq.fu_full::SimdSqrt                    0      0.00%     99.83% # attempts to use FU when none available
system.cpu0.iq.fu_full::SimdFloatAdd                0      0.00%     99.83% # attempts to use FU when none available
system.cpu0.iq.fu_full::SimdFloatAlu                0      0.00%     99.83% # attempts to use FU when none available
system.cpu0.iq.fu_full::SimdFloatCmp                0      0.00%     99.83% # attempts to use FU when none available
system.cpu0.iq.fu_full::SimdFloatCvt                0      0.00%     99.83% # attempts to use FU when none available
system.cpu0.iq.fu_full::SimdFloatDiv                0      0.00%     99.83% # attempts to use FU when none available
system.cpu0.iq.fu_full::SimdFloatMisc               0      0.00%     99.83% # attempts to use FU when none available
system.cpu0.iq.fu_full::SimdFloatMult               0      0.00%     99.83% # attempts to use FU when none available
system.cpu0.iq.fu_full::SimdFloatMultAcc            0      0.00%     99.83% # attempts to use FU when none available
system.cpu0.iq.fu_full::SimdFloatSqrt               0      0.00%     99.83% # attempts to use FU when none available
system.cpu0.iq.fu_full::MemRead                   181      0.17%    100.00% # attempts to use FU when none available
system.cpu0.iq.fu_full::MemWrite                    0      0.00%    100.00% # attempts to use FU when none available
system.cpu0.iq.fu_full::FloatMemRead                0      0.00%    100.00% # attempts to use FU when none available
system.cpu0.iq.fu_full::FloatMemWrite               0      0.00%    100.00% # attempts to use FU when none available
system.cpu0.iq.fu_full::IprAccess                   0      0.00%    100.00% # attempts to use FU when none available
system.cpu0.iq.fu_full::InstPrefetch                0      0.00%    100.00% # attempts to use FU when none available
system.cpu0.iq.FU_type_0::No_OpClass             6187      0.01%      0.01% # Type of FU issued
system.cpu0.iq.FU_type_0::IntAlu             36732897     52.02%     52.03% # Type of FU issued
system.cpu0.iq.FU_type_0::IntMult                   0      0.00%     52.03% # Type of FU issued
system.cpu0.iq.FU_type_0::IntDiv                    0      0.00%     52.03% # Type of FU issued
system.cpu0.iq.FU_type_0::FloatAdd           22901755     32.43%     84.47% # Type of FU issued
system.cpu0.iq.FU_type_0::FloatCmp                  0      0.00%     84.47% # Type of FU issued
system.cpu0.iq.FU_type_0::FloatCvt                  0      0.00%     84.47% # Type of FU issued
system.cpu0.iq.FU_type_0::FloatMult                 0      0.00%     84.47% # Type of FU issued
system.cpu0.iq.FU_type_0::FloatMultAcc              0      0.00%     84.47% # Type of FU issued
system.cpu0.iq.FU_type_0::FloatDiv                  0      0.00%     84.47% # Type of FU issued
system.cpu0.iq.FU_type_0::FloatMisc                 0      0.00%     84.47% # Type of FU issued
system.cpu0.iq.FU_type_0::FloatSqrt                 0      0.00%     84.47% # Type of FU issued
system.cpu0.iq.FU_type_0::SimdAdd                   0      0.00%     84.47% # Type of FU issued
system.cpu0.iq.FU_type_0::SimdAddAcc                0      0.00%     84.47% # Type of FU issued
system.cpu0.iq.FU_type_0::SimdAlu                   0      0.00%     84.47% # Type of FU issued
system.cpu0.iq.FU_type_0::SimdCmp                   0      0.00%     84.47% # Type of FU issued
system.cpu0.iq.FU_type_0::SimdCvt                   0      0.00%     84.47% # Type of FU issued
system.cpu0.iq.FU_type_0::SimdMisc                  0      0.00%     84.47% # Type of FU issued
system.cpu0.iq.FU_type_0::SimdMult                  0      0.00%     84.47% # Type of FU issued
system.cpu0.iq.FU_type_0::SimdMultAcc               0      0.00%     84.47% # Type of FU issued
system.cpu0.iq.FU_type_0::SimdShift                 0      0.00%     84.47% # Type of FU issued
system.cpu0.iq.FU_type_0::SimdShiftAcc              0      0.00%     84.47% # Type of FU issued
system.cpu0.iq.FU_type_0::SimdSqrt                  0      0.00%     84.47% # Type of FU issued
system.cpu0.iq.FU_type_0::SimdFloatAdd              0      0.00%     84.47% # Type of FU issued
system.cpu0.iq.FU_type_0::SimdFloatAlu              0      0.00%     84.47% # Type of FU issued
system.cpu0.iq.FU_type_0::SimdFloatCmp              0      0.00%     84.47% # Type of FU issued
system.cpu0.iq.FU_type_0::SimdFloatCvt              0      0.00%     84.47% # Type of FU issued
system.cpu0.iq.FU_type_0::SimdFloatDiv              0      0.00%     84.47% # Type of FU issued
system.cpu0.iq.FU_type_0::SimdFloatMisc             0      0.00%     84.47% # Type of FU issued
system.cpu0.iq.FU_type_0::SimdFloatMult             0      0.00%     84.47% # Type of FU issued
system.cpu0.iq.FU_type_0::SimdFloatMultAcc            0      0.00%     84.47% # Type of FU issued
system.cpu0.iq.FU_type_0::SimdFloatSqrt             0      0.00%     84.47% # Type of FU issued
system.cpu0.iq.FU_type_0::MemRead             1952577      2.77%     87.23% # Type of FU issued
system.cpu0.iq.FU_type_0::MemWrite            1467622      2.08%     89.31% # Type of FU issued
system.cpu0.iq.FU_type_0::FloatMemRead        6922404      9.80%     99.11% # Type of FU issued
system.cpu0.iq.FU_type_0::FloatMemWrite        625208      0.89%    100.00% # Type of FU issued
system.cpu0.iq.FU_type_0::IprAccess                 0      0.00%    100.00% # Type of FU issued
system.cpu0.iq.FU_type_0::InstPrefetch              0      0.00%    100.00% # Type of FU issued
system.cpu0.iq.FU_type_0::total              70608650                       # Type of FU issued
system.cpu0.iq.rate                          2.312408                       # Inst issue rate
system.cpu0.iq.fu_busy_cnt                     106170                       # FU busy when requested
system.cpu0.iq.fu_busy_rate                  0.001504                       # FU busy rate (busy events/executed inst)
system.cpu0.iq.int_inst_queue_reads          97333084                       # Number of integer instruction queue reads
system.cpu0.iq.int_inst_queue_writes         37442336                       # Number of integer instruction queue writes
system.cpu0.iq.int_inst_queue_wakeup_accesses     33335762                       # Number of integer instruction queue wakeup accesses
system.cpu0.iq.fp_inst_queue_reads           74525072                       # Number of floating instruction queue reads
system.cpu0.iq.fp_inst_queue_writes          49417138                       # Number of floating instruction queue writes
system.cpu0.iq.fp_inst_queue_wakeup_accesses     37064797                       # Number of floating instruction queue wakeup accesses
system.cpu0.iq.vec_inst_queue_reads                 0                       # Number of vector instruction queue reads
system.cpu0.iq.vec_inst_queue_writes                0                       # Number of vector instruction queue writes
system.cpu0.iq.vec_inst_queue_wakeup_accesses            0                       # Number of vector instruction queue wakeup accesses
system.cpu0.iq.int_alu_accesses              33393101                       # Number of integer alu accesses
system.cpu0.iq.fp_alu_accesses               37315532                       # Number of floating point alu accesses
system.cpu0.iq.vec_alu_accesses                     0                       # Number of vector alu accesses
system.cpu0.iew.lsq.thread0.forwLoads          418022                       # Number of loads that had data forwarded from stores
system.cpu0.iew.lsq.thread0.invAddrLoads            0                       # Number of loads ignored due to an invalid address
system.cpu0.iew.lsq.thread0.squashedLoads      1404691                       # Number of loads squashed
system.cpu0.iew.lsq.thread0.ignoredResponses            3                       # Number of memory responses ignored because the instruction is squashed
system.cpu0.iew.lsq.thread0.memOrderViolation          101                       # Number of memory ordering violations
system.cpu0.iew.lsq.thread0.squashedStores         3508                       # Number of stores squashed
system.cpu0.iew.lsq.thread0.invAddrSwpfs            0                       # Number of software prefetches ignored due to an invalid address
system.cpu0.iew.lsq.thread0.blockedLoads            0                       # Number of blocked loads due to partial load-store forwarding
system.cpu0.iew.lsq.thread0.rescheduledLoads            0                       # Number of loads that were rescheduled
system.cpu0.iew.lsq.thread0.cacheBlocked            0                       # Number of times an access to memory failed due to the cache being blocked
system.cpu0.iew.iewIdleCycles                       0                       # Number of cycles IEW is idle
system.cpu0.iew.iewSquashCycles                108769                       # Number of cycles IEW is squashing
system.cpu0.iew.iewBlockCycles                3361825                       # Number of cycles IEW is blocking
system.cpu0.iew.iewUnblockCycles               113270                       # Number of cycles IEW is unblocking
system.cpu0.iew.iewDispatchedInsts           76276529                       # Number of instructions dispatched to IQ
system.cpu0.iew.iewDispSquashedInsts                0                       # Number of squashed instructions skipped by dispatch
system.cpu0.iew.iewDispLoadInsts              9493653                       # Number of dispatched load instructions
system.cpu0.iew.iewDispStoreInsts             2094533                       # Number of dispatched store instructions
system.cpu0.iew.iewDispNonSpecInsts                 0                       # Number of dispatched non-speculative instructions
system.cpu0.iew.iewIQFullEvents                 99783                       # Number of times the IQ has become full, causing a stall
system.cpu0.iew.iewLSQFullEvents                    0                       # Number of times the LSQ has become full, causing a stall
system.cpu0.iew.memOrderViolationEvents           101                       # Number of memory order violations
system.cpu0.iew.predictedTakenIncorrect         58417                       # Number of branches that were predicted taken incorrectly
system.cpu0.iew.predictedNotTakenIncorrect        50266                       # Number of branches that were predicted not taken incorrectly
system.cpu0.iew.branchMispredicts              108683                       # Number of branch mispredicts detected at execute
system.cpu0.iew.iewExecutedInsts             70409154                       # Number of executed instructions
system.cpu0.iew.iewExecLoadInsts              8873864                       # Number of load instructions executed
system.cpu0.iew.iewExecSquashedInsts           199491                       # Number of squashed instructions skipped in execute
system.cpu0.iew.exec_swp                            0                       # number of swp insts executed
system.cpu0.iew.exec_nop                            0                       # number of nop insts executed
system.cpu0.iew.exec_refs                    10966126                       # number of memory reference insts executed
system.cpu0.iew.exec_branches                 4702176                       # Number of branches executed
system.cpu0.iew.exec_stores                   2092262                       # Number of stores executed
system.cpu0.iew.exec_rate                    2.305874                       # Inst execution rate
system.cpu0.iew.wb_sent                      70404717                       # cumulative count of insts sent to commit
system.cpu0.iew.wb_count                     70400559                       # cumulative count of insts written-back
system.cpu0.iew.wb_producers                 52409986                       # num instructions producing a value
system.cpu0.iew.wb_consumers                 92235607                       # num instructions consuming a value
system.cpu0.iew.wb_rate                      2.305593                       # insts written-back per cycle
system.cpu0.iew.wb_fanout                    0.568219                       # average fanout of values written-back
system.cpu0.commit.commitSquashedInsts       10582844                       # The number of squashed insts skipped by commit
system.cpu0.commit.branchMispredicts           108668                       # The number of times a branch was mispredicted
system.cpu0.commit.committed_per_cycle::samples     29181229                       # Number of insts commited each cycle
system.cpu0.commit.committed_per_cycle::mean     2.251232                       # Number of insts commited each cycle
system.cpu0.commit.committed_per_cycle::stdev     2.860759                       # Number of insts commited each cycle
system.cpu0.commit.committed_per_cycle::underflows            0      0.00%      0.00% # Number of insts commited each cycle
system.cpu0.commit.committed_per_cycle::0     10978529     37.62%     37.62% # Number of insts commited each cycle
system.cpu0.commit.committed_per_cycle::1      7505174     25.72%     63.34% # Number of insts commited each cycle
system.cpu0.commit.committed_per_cycle::2      1052923      3.61%     66.95% # Number of insts commited each cycle
system.cpu0.commit.committed_per_cycle::3      2901744      9.94%     76.89% # Number of insts commited each cycle
system.cpu0.commit.committed_per_cycle::4      1139721      3.91%     80.80% # Number of insts commited each cycle
system.cpu0.commit.committed_per_cycle::5       216423      0.74%     81.54% # Number of insts commited each cycle
system.cpu0.commit.committed_per_cycle::6       419765      1.44%     82.98% # Number of insts commited each cycle
system.cpu0.commit.committed_per_cycle::7       517720      1.77%     84.75% # Number of insts commited each cycle
system.cpu0.commit.committed_per_cycle::8      4449230     15.25%    100.00% # Number of insts commited each cycle
system.cpu0.commit.committed_per_cycle::overflows            0      0.00%    100.00% # Number of insts commited each cycle
system.cpu0.commit.committed_per_cycle::min_value            0                       # Number of insts commited each cycle
system.cpu0.commit.committed_per_cycle::max_value            8                       # Number of insts commited each cycle
system.cpu0.commit.committed_per_cycle::total     29181229                       # Number of insts commited each cycle
system.cpu0.commit.committedInsts            37001012                       # Number of instructions committed
system.cpu0.commit.committedOps              65693721                       # Number of ops (including micro ops) committed
system.cpu0.commit.swp_count                        0                       # Number of s/w prefetches committed
system.cpu0.commit.refs                      10179992                       # Number of memory references committed
system.cpu0.commit.loads                      8088961                       # Number of loads committed
system.cpu0.commit.membars                          0                       # Number of memory barriers committed
system.cpu0.commit.branches                   4595940                       # Number of branches committed
system.cpu0.commit.vec_insts                        0                       # Number of committed Vector instructions.
system.cpu0.commit.fp_insts                  33967898                       # Number of committed floating point instructions.
system.cpu0.commit.int_insts                 40783691                       # Number of committed integer instructions.
system.cpu0.commit.function_calls              625190                       # Number of function calls committed.
system.cpu0.commit.op_class_0::No_OpClass         5970      0.01%      0.01% # Class of committed instruction
system.cpu0.commit.op_class_0::IntAlu        34147414     51.98%     51.99% # Class of committed instruction
system.cpu0.commit.op_class_0::IntMult              0      0.00%     51.99% # Class of committed instruction
system.cpu0.commit.op_class_0::IntDiv               0      0.00%     51.99% # Class of committed instruction
system.cpu0.commit.op_class_0::FloatAdd      21360345     32.52%     84.50% # Class of committed instruction
system.cpu0.commit.op_class_0::FloatCmp             0      0.00%     84.50% # Class of committed instruction
system.cpu0.commit.op_class_0::FloatCvt             0      0.00%     84.50% # Class of committed instruction
system.cpu0.commit.op_class_0::FloatMult            0      0.00%     84.50% # Class of committed instruction
system.cpu0.commit.op_class_0::FloatMultAcc            0      0.00%     84.50% # Class of committed instruction
system.cpu0.commit.op_class_0::FloatDiv             0      0.00%     84.50% # Class of committed instruction
system.cpu0.commit.op_class_0::FloatMisc            0      0.00%     84.50% # Class of committed instruction
system.cpu0.commit.op_class_0::FloatSqrt            0      0.00%     84.50% # Class of committed instruction
system.cpu0.commit.op_class_0::SimdAdd              0      0.00%     84.50% # Class of committed instruction
system.cpu0.commit.op_class_0::SimdAddAcc            0      0.00%     84.50% # Class of committed instruction
system.cpu0.commit.op_class_0::SimdAlu              0      0.00%     84.50% # Class of committed instruction
system.cpu0.commit.op_class_0::SimdCmp              0      0.00%     84.50% # Class of committed instruction
system.cpu0.commit.op_class_0::SimdCvt              0      0.00%     84.50% # Class of committed instruction
system.cpu0.commit.op_class_0::SimdMisc             0      0.00%     84.50% # Class of committed instruction
system.cpu0.commit.op_class_0::SimdMult             0      0.00%     84.50% # Class of committed instruction
system.cpu0.commit.op_class_0::SimdMultAcc            0      0.00%     84.50% # Class of committed instruction
system.cpu0.commit.op_class_0::SimdShift            0      0.00%     84.50% # Class of committed instruction
system.cpu0.commit.op_class_0::SimdShiftAcc            0      0.00%     84.50% # Class of committed instruction
system.cpu0.commit.op_class_0::SimdSqrt             0      0.00%     84.50% # Class of committed instruction
system.cpu0.commit.op_class_0::SimdFloatAdd            0      0.00%     84.50% # Class of committed instruction
system.cpu0.commit.op_class_0::SimdFloatAlu            0      0.00%     84.50% # Class of committed instruction
system.cpu0.commit.op_class_0::SimdFloatCmp            0      0.00%     84.50% # Class of committed instruction
system.cpu0.commit.op_class_0::SimdFloatCvt            0      0.00%     84.50% # Class of committed instruction
system.cpu0.commit.op_class_0::SimdFloatDiv            0      0.00%     84.50% # Class of committed instruction
system.cpu0.commit.op_class_0::SimdFloatMisc            0      0.00%     84.50% # Class of committed instruction
system.cpu0.commit.op_class_0::SimdFloatMult            0      0.00%     84.50% # Class of committed instruction
system.cpu0.commit.op_class_0::SimdFloatMultAcc            0      0.00%     84.50% # Class of committed instruction
system.cpu0.commit.op_class_0::SimdFloatSqrt            0      0.00%     84.50% # Class of committed instruction
system.cpu0.commit.op_class_0::MemRead        1942683      2.96%     87.46% # Class of committed instruction
system.cpu0.commit.op_class_0::MemWrite       1465834      2.23%     89.69% # Class of committed instruction
system.cpu0.commit.op_class_0::FloatMemRead      6146278      9.36%     99.05% # Class of committed instruction
system.cpu0.commit.op_class_0::FloatMemWrite       625197      0.95%    100.00% # Class of committed instruction
system.cpu0.commit.op_class_0::IprAccess            0      0.00%    100.00% # Class of committed instruction
system.cpu0.commit.op_class_0::InstPrefetch            0      0.00%    100.00% # Class of committed instruction
system.cpu0.commit.op_class_0::total         65693721                       # Class of committed instruction
system.cpu0.commit.bw_lim_events              4449230                       # number cycles where commit BW limit reached
system.cpu0.rob.rob_reads                   101008564                       # The number of ROB reads
system.cpu0.rob.rob_writes                  153906581                       # The number of ROB writes
system.cpu0.committedInsts                   37001012                       # Number of Instructions Simulated
system.cpu0.committedOps                     65693721                       # Number of Ops (including micro ops) Simulated
system.cpu0.cpi                              0.825239                       # CPI: Cycles Per Instruction
system.cpu0.cpi_total                        0.825239                       # CPI: Total CPI of All Threads
system.cpu0.ipc                              1.211770                       # IPC: Instructions Per Cycle
system.cpu0.ipc_total                        1.211770                       # IPC: Total IPC of All Threads
system.cpu0.int_regfile_reads                56024522                       # number of integer regfile reads
system.cpu0.int_regfile_writes               28512311                       # number of integer regfile writes
system.cpu0.fp_regfile_reads                 64596840                       # number of floating regfile reads
system.cpu0.fp_regfile_writes                33214925                       # number of floating regfile writes
system.cpu0.cc_regfile_reads                 20546509                       # number of cc regfile reads
system.cpu0.cc_regfile_writes                13373782                       # number of cc regfile writes
system.cpu0.misc_regfile_reads               24084154                       # number of misc regfile reads
system.cpu0.dcache.tags.pwrStateResidencyTicks::UNDEFINED  15267344125                       # Cumulative time (in ticks) in various power states
system.cpu0.dcache.tags.replacements            14226                       # number of replacements
system.cpu0.dcache.tags.tagsinuse                1024                       # Cycle average of tags in use
system.cpu0.dcache.tags.total_refs            1086185                       # Total number of references to valid blocks.
system.cpu0.dcache.tags.sampled_refs            14226                       # Sample count of references to valid blocks.
system.cpu0.dcache.tags.avg_refs            76.352102                       # Average number of references to valid blocks.
system.cpu0.dcache.tags.warmup_cycle                0                       # Cycle when the warmup percentage was hit.
system.cpu0.dcache.tags.occ_blocks::cpu0.data         1024                       # Average occupied blocks per requestor
system.cpu0.dcache.tags.occ_percent::cpu0.data            1                       # Average percentage of cache occupancy
system.cpu0.dcache.tags.occ_percent::total            1                       # Average percentage of cache occupancy
system.cpu0.dcache.tags.occ_task_id_blocks::1024         1024                       # Occupied blocks per task id
system.cpu0.dcache.tags.age_task_id_blocks_1024::0            9                       # Occupied blocks per task id
system.cpu0.dcache.tags.age_task_id_blocks_1024::1           83                       # Occupied blocks per task id
system.cpu0.dcache.tags.age_task_id_blocks_1024::2          700                       # Occupied blocks per task id
system.cpu0.dcache.tags.age_task_id_blocks_1024::3           12                       # Occupied blocks per task id
system.cpu0.dcache.tags.age_task_id_blocks_1024::4          220                       # Occupied blocks per task id
system.cpu0.dcache.tags.occ_task_id_percent::1024            1                       # Percentage of cache occupancy per task id
system.cpu0.dcache.tags.tag_accesses         42306306                       # Number of tag accesses
system.cpu0.dcache.tags.data_accesses        42306306                       # Number of data accesses
system.cpu0.dcache.pwrStateResidencyTicks::UNDEFINED  15267344125                       # Cumulative time (in ticks) in various power states
system.cpu0.dcache.ReadReq_hits::cpu0.data      8467689                       # number of ReadReq hits
system.cpu0.dcache.ReadReq_hits::total        8467689                       # number of ReadReq hits
system.cpu0.dcache.WriteReq_hits::cpu0.data      2091032                       # number of WriteReq hits
system.cpu0.dcache.WriteReq_hits::total       2091032                       # number of WriteReq hits
system.cpu0.dcache.demand_hits::cpu0.data     10558721                       # number of demand (read+write) hits
system.cpu0.dcache.demand_hits::total        10558721                       # number of demand (read+write) hits
system.cpu0.dcache.overall_hits::cpu0.data     10558721                       # number of overall hits
system.cpu0.dcache.overall_hits::total       10558721                       # number of overall hits
system.cpu0.dcache.ReadReq_misses::cpu0.data        14299                       # number of ReadReq misses
system.cpu0.dcache.ReadReq_misses::total        14299                       # number of ReadReq misses
system.cpu0.dcache.demand_misses::cpu0.data        14299                       # number of demand (read+write) misses
system.cpu0.dcache.demand_misses::total         14299                       # number of demand (read+write) misses
system.cpu0.dcache.overall_misses::cpu0.data        14299                       # number of overall misses
system.cpu0.dcache.overall_misses::total        14299                       # number of overall misses
system.cpu0.dcache.ReadReq_miss_latency::cpu0.data   1411818000                       # number of ReadReq miss cycles
system.cpu0.dcache.ReadReq_miss_latency::total   1411818000                       # number of ReadReq miss cycles
system.cpu0.dcache.demand_miss_latency::cpu0.data   1411818000                       # number of demand (read+write) miss cycles
system.cpu0.dcache.demand_miss_latency::total   1411818000                       # number of demand (read+write) miss cycles
system.cpu0.dcache.overall_miss_latency::cpu0.data   1411818000                       # number of overall miss cycles
system.cpu0.dcache.overall_miss_latency::total   1411818000                       # number of overall miss cycles
system.cpu0.dcache.ReadReq_accesses::cpu0.data      8481988                       # number of ReadReq accesses(hits+misses)
system.cpu0.dcache.ReadReq_accesses::total      8481988                       # number of ReadReq accesses(hits+misses)
system.cpu0.dcache.WriteReq_accesses::cpu0.data      2091032                       # number of WriteReq accesses(hits+misses)
system.cpu0.dcache.WriteReq_accesses::total      2091032                       # number of WriteReq accesses(hits+misses)
system.cpu0.dcache.demand_accesses::cpu0.data     10573020                       # number of demand (read+write) accesses
system.cpu0.dcache.demand_accesses::total     10573020                       # number of demand (read+write) accesses
system.cpu0.dcache.overall_accesses::cpu0.data     10573020                       # number of overall (read+write) accesses
system.cpu0.dcache.overall_accesses::total     10573020                       # number of overall (read+write) accesses
system.cpu0.dcache.ReadReq_miss_rate::cpu0.data     0.001686                       # miss rate for ReadReq accesses
system.cpu0.dcache.ReadReq_miss_rate::total     0.001686                       # miss rate for ReadReq accesses
system.cpu0.dcache.demand_miss_rate::cpu0.data     0.001352                       # miss rate for demand accesses
system.cpu0.dcache.demand_miss_rate::total     0.001352                       # miss rate for demand accesses
system.cpu0.dcache.overall_miss_rate::cpu0.data     0.001352                       # miss rate for overall accesses
system.cpu0.dcache.overall_miss_rate::total     0.001352                       # miss rate for overall accesses
system.cpu0.dcache.ReadReq_avg_miss_latency::cpu0.data 98735.436044                       # average ReadReq miss latency
system.cpu0.dcache.ReadReq_avg_miss_latency::total 98735.436044                       # average ReadReq miss latency
system.cpu0.dcache.demand_avg_miss_latency::cpu0.data 98735.436044                       # average overall miss latency
system.cpu0.dcache.demand_avg_miss_latency::total 98735.436044                       # average overall miss latency
system.cpu0.dcache.overall_avg_miss_latency::cpu0.data 98735.436044                       # average overall miss latency
system.cpu0.dcache.overall_avg_miss_latency::total 98735.436044                       # average overall miss latency
system.cpu0.dcache.blocked_cycles::no_mshrs            0                       # number of cycles access was blocked
system.cpu0.dcache.blocked_cycles::no_targets            0                       # number of cycles access was blocked
system.cpu0.dcache.blocked::no_mshrs                0                       # number of cycles access was blocked
system.cpu0.dcache.blocked::no_targets              0                       # number of cycles access was blocked
system.cpu0.dcache.avg_blocked_cycles::no_mshrs          nan                       # average number of cycles each access was blocked
system.cpu0.dcache.avg_blocked_cycles::no_targets          nan                       # average number of cycles each access was blocked
system.cpu0.dcache.writebacks::writebacks        13374                       # number of writebacks
system.cpu0.dcache.writebacks::total            13374                       # number of writebacks
system.cpu0.dcache.ReadReq_mshr_hits::cpu0.data           73                       # number of ReadReq MSHR hits
system.cpu0.dcache.ReadReq_mshr_hits::total           73                       # number of ReadReq MSHR hits
system.cpu0.dcache.demand_mshr_hits::cpu0.data           73                       # number of demand (read+write) MSHR hits
system.cpu0.dcache.demand_mshr_hits::total           73                       # number of demand (read+write) MSHR hits
system.cpu0.dcache.overall_mshr_hits::cpu0.data           73                       # number of overall MSHR hits
system.cpu0.dcache.overall_mshr_hits::total           73                       # number of overall MSHR hits
system.cpu0.dcache.ReadReq_mshr_misses::cpu0.data        14226                       # number of ReadReq MSHR misses
system.cpu0.dcache.ReadReq_mshr_misses::total        14226                       # number of ReadReq MSHR misses
system.cpu0.dcache.demand_mshr_misses::cpu0.data        14226                       # number of demand (read+write) MSHR misses
system.cpu0.dcache.demand_mshr_misses::total        14226                       # number of demand (read+write) MSHR misses
[...]
system.l2.tags.pwrStateResidencyTicks::UNDEFINED  15267344125                       # Cumulative time (in ticks) in various power states
system.l2.tags.replacements                     14201                       # number of replacements
system.l2.tags.tagsinuse                        49152                       # Cycle average of tags in use
system.l2.tags.total_refs                       14201                       # Total number of references to valid blocks.
system.l2.tags.sampled_refs                     14201                       # Sample count of references to valid blocks.
system.l2.tags.avg_refs                             1                       # Average number of references to valid blocks.
system.l2.tags.warmup_cycle                         0                       # Cycle when the warmup percentage was hit.
system.l2.tags.occ_blocks::cpu0.data            49152                       # Average occupied blocks per requestor
system.l2.tags.occ_percent::cpu0.data               1                       # Average percentage of cache occupancy
system.l2.tags.occ_percent::total                   1                       # Average percentage of cache occupancy
system.l2.tags.occ_task_id_blocks::1024         49152                       # Occupied blocks per task id
system.l2.tags.age_task_id_blocks_1024::0            9                       # Occupied blocks per task id
system.l2.tags.age_task_id_blocks_1024::1           83                       # Occupied blocks per task id
system.l2.tags.age_task_id_blocks_1024::2          836                       # Occupied blocks per task id
system.l2.tags.age_task_id_blocks_1024::3         8363                       # Occupied blocks per task id
system.l2.tags.age_task_id_blocks_1024::4        39861                       # Occupied blocks per task id
system.l2.tags.occ_task_id_percent::1024            1                       # Percentage of cache occupancy per task id
system.l2.tags.tag_accesses                    355625                       # Number of tag accesses
system.l2.tags.data_accesses                   355625                       # Number of data accesses
system.l2.pwrStateResidencyTicks::UNDEFINED  15267344125                       # Cumulative time (in ticks) in various power states
system.l2.WritebackDirty_hits::writebacks        13374                       # number of WritebackDirty hits
system.l2.WritebackDirty_hits::total            13374                       # number of WritebackDirty hits
system.l2.ReadSharedReq_hits::cpu0.data            25                       # number of ReadSharedReq hits
system.l2.ReadSharedReq_hits::total                25                       # number of ReadSharedReq hits
system.l2.demand_hits::cpu0.data                   25                       # number of demand (read+write) hits
system.l2.demand_hits::total                       25                       # number of demand (read+write) hits
system.l2.overall_hits::cpu0.data                  25                       # number of overall hits
system.l2.overall_hits::total                      25                       # number of overall hits
system.l2.ReadSharedReq_misses::cpu0.data        14201                       # number of ReadSharedReq misses
system.l2.ReadSharedReq_misses::total           14201                       # number of ReadSharedReq misses
system.l2.demand_misses::cpu0.data              14201                       # number of demand (read+write) misses
system.l2.demand_misses::total                  14201                       # number of demand (read+write) misses
system.l2.overall_misses::cpu0.data             14201                       # number of overall misses
system.l2.overall_misses::total                 14201                       # number of overall misses
system.l2.ReadSharedReq_miss_latency::cpu0.data   1369586000                       # number of ReadSharedReq miss cycles
system.l2.ReadSharedReq_miss_latency::total   1369586000                       # number of ReadSharedReq miss cycles
system.l2.demand_miss_latency::cpu0.data   1369586000                       # number of demand (read+write) miss cycles
system.l2.demand_miss_latency::total       1369586000                       # number of demand (read+write) miss cycles
system.l2.overall_miss_latency::cpu0.data   1369586000                       # number of overall miss cycles
system.l2.overall_miss_latency::total      1369586000                       # number of overall miss cycles
system.l2.WritebackDirty_accesses::writebacks        13374                       # number of WritebackDirty accesses(hits+misses)
system.l2.WritebackDirty_accesses::total        13374                       # number of WritebackDirty accesses(hits+misses)
system.l2.ReadSharedReq_accesses::cpu0.data        14226                       # number of ReadSharedReq accesses(hits+misses)
system.l2.ReadSharedReq_accesses::total         14226                       # number of ReadSharedReq accesses(hits+misses)
system.l2.demand_accesses::cpu0.data            14226                       # number of demand (read+write) accesses
system.l2.demand_accesses::total                14226                       # number of demand (read+write) accesses
system.l2.overall_accesses::cpu0.data           14226                       # number of overall (read+write) accesses
system.l2.overall_accesses::total               14226                       # number of overall (read+write) accesses
system.l2.ReadSharedReq_miss_rate::cpu0.data     0.998243                       # miss rate for ReadSharedReq accesses
system.l2.ReadSharedReq_miss_rate::total     0.998243                       # miss rate for ReadSharedReq accesses
system.l2.demand_miss_rate::cpu0.data        0.998243                       # miss rate for demand accesses
system.l2.demand_miss_rate::total            0.998243                       # miss rate for demand accesses
system.l2.overall_miss_rate::cpu0.data       0.998243                       # miss rate for overall accesses
system.l2.overall_miss_rate::total           0.998243                       # miss rate for overall accesses
system.l2.ReadSharedReq_avg_miss_latency::cpu0.data 96442.926554                       # average ReadSharedReq miss latency
system.l2.ReadSharedReq_avg_miss_latency::total 96442.926554                       # average ReadSharedReq miss latency
system.l2.demand_avg_miss_latency::cpu0.data 96442.926554                       # average overall miss latency
system.l2.demand_avg_miss_latency::total 96442.926554                       # average overall miss latency
system.l2.overall_avg_miss_latency::cpu0.data 96442.926554                       # average overall miss latency
system.l2.overall_avg_miss_latency::total 96442.926554                       # average overall miss latency
system.l2.blocked_cycles::no_mshrs                  0                       # number of cycles access was blocked
system.l2.blocked_cycles::no_targets                0                       # number of cycles access was blocked
system.l2.blocked::no_mshrs                         0                       # number of cycles access was blocked
system.l2.blocked::no_targets                       0                       # number of cycles access was blocked
system.l2.avg_blocked_cycles::no_mshrs            nan                       # average number of cycles each access was blocked
system.l2.avg_blocked_cycles::no_targets          nan                       # average number of cycles each access was blocked
system.l2.writebacks::writebacks                13384                       # number of writebacks
system.l2.writebacks::total                     13384                       # number of writebacks
system.l2.ReadSharedReq_mshr_misses::cpu0.data        14201                       # number of ReadSharedReq MSHR misses
system.l2.ReadSharedReq_mshr_misses::total        14201                       # number of ReadSharedReq MSHR misses
system.l2.demand_mshr_misses::cpu0.data         14201                       # number of demand (read+write) MSHR misses
system.l2.demand_mshr_misses::total             14201                       # number of demand (read+write) MSHR misses
system.l2.overall_mshr_misses::cpu0.data        14201                       # number of overall MSHR misses
system.l2.overall_mshr_misses::total            14201                       # number of overall MSHR misses
system.l2.ReadSharedReq_mshr_miss_latency::cpu0.data   1227576000                       # number of ReadSharedReq MSHR miss cycles
system.l2.ReadSharedReq_mshr_miss_latency::total   1227576000                       # number of ReadSharedReq MSHR miss cycles
system.l2.demand_mshr_miss_latency::cpu0.data   1227576000                       # number of demand (read+write) MSHR miss cycles
system.l2.demand_mshr_miss_latency::total   1227576000                       # number of demand (read+write) MSHR miss cycles
system.l2.overall_mshr_miss_latency::cpu0.data   1227576000                       # number of overall MSHR miss cycles
system.l2.overall_mshr_miss_latency::total   1227576000                       # number of overall MSHR miss cycles
system.l2.ReadSharedReq_mshr_miss_rate::cpu0.data     0.998243                       # mshr miss rate for ReadSharedReq accesses
system.l2.ReadSharedReq_mshr_miss_rate::total     0.998243                       # mshr miss rate for ReadSharedReq accesses
system.l2.demand_mshr_miss_rate::cpu0.data     0.998243                       # mshr miss rate for demand accesses
system.l2.demand_mshr_miss_rate::total       0.998243                       # mshr miss rate for demand accesses
system.l2.overall_mshr_miss_rate::cpu0.data     0.998243                       # mshr miss rate for overall accesses
system.l2.overall_mshr_miss_rate::total      0.998243                       # mshr miss rate for overall accesses
system.l2.ReadSharedReq_avg_mshr_miss_latency::cpu0.data 86442.926554                       # average ReadSharedReq mshr miss latency
system.l2.ReadSharedReq_avg_mshr_miss_latency::total 86442.926554                       # average ReadSharedReq mshr miss latency
system.l2.demand_avg_mshr_miss_latency::cpu0.data 86442.926554                       # average overall mshr miss latency
system.l2.demand_avg_mshr_miss_latency::total 86442.926554                       # average overall mshr miss latency
system.l2.overall_avg_mshr_miss_latency::cpu0.data 86442.926554                       # average overall mshr miss latency
system.l2.overall_avg_mshr_miss_latency::total 86442.926554                       # average overall mshr miss latency
system.membus.snoop_filter.tot_requests         28402                       # Total number of requests made to the snoop filter.
system.membus.snoop_filter.hit_single_requests        14201                       # Number of requests hitting in the snoop filter with a single holder of the requested data.
system.membus.snoop_filter.hit_multi_requests            0                       # Number of requests hitting in the snoop filter with multiple (>1) holders of the requested data.
system.membus.snoop_filter.tot_snoops               0                       # Total number of snoops made to the snoop filter.
system.membus.snoop_filter.hit_single_snoops            0                       # Number of snoops hitting in the snoop filter with a single holder of the requested data.
system.membus.snoop_filter.hit_multi_snoops            0                       # Number of snoops hitting in the snoop filter with multiple (>1) holders of the requested data.
system.membus.pwrStateResidencyTicks::UNDEFINED  15267344125                       # Cumulative time (in ticks) in various power states
system.membus.trans_dist::ReadResp              14201                       # Transaction distribution
system.membus.trans_dist::WritebackDirty        13384                       # Transaction distribution
system.membus.trans_dist::CleanEvict              817                       # Transaction distribution
system.membus.trans_dist::ReadSharedReq         14201                       # Transaction distribution
system.membus.pkt_count_system.l2.mem_side::system.mem_ctrls.port        42603                       # Packet count per connected master and slave (bytes)
system.membus.pkt_count_system.l2.mem_side::total        42603                       # Packet count per connected master and slave (bytes)
system.membus.pkt_count::total                  42603                       # Packet count per connected master and slave (bytes)
system.membus.pkt_size_system.l2.mem_side::system.mem_ctrls.port      1765440                       # Cumulative packet size per connected master and slave (bytes)
system.membus.pkt_size_system.l2.mem_side::total      1765440                       # Cumulative packet size per connected master and slave (bytes)
system.membus.pkt_size::total                 1765440                       # Cumulative packet size per connected master and slave (bytes)
system.membus.snoops                                0                       # Total snoops (count)
system.membus.snoopTraffic                          0                       # Total snoop traffic (bytes)
system.membus.snoop_fanout::samples             14201                       # Request fanout histogram
system.membus.snoop_fanout::mean                    0                       # Request fanout histogram
system.membus.snoop_fanout::stdev                   0                       # Request fanout histogram
system.membus.snoop_fanout::underflows              0      0.00%      0.00% # Request fanout histogram
system.membus.snoop_fanout::0                   14201    100.00%    100.00% # Request fanout histogram
system.membus.snoop_fanout::1                       0      0.00%    100.00% # Request fanout histogram
system.membus.snoop_fanout::overflows               0      0.00%    100.00% # Request fanout histogram
system.membus.snoop_fanout::min_value               0                       # Request fanout histogram
system.membus.snoop_fanout::max_value               0                       # Request fanout histogram
system.membus.snoop_fanout::total               14201                       # Request fanout histogram
system.membus.reqLayer8.occupancy            85529500                       # Layer occupancy (ticks)
system.membus.reqLayer8.utilization               0.6                       # Layer utilization (%)
system.membus.respLayer1.occupancy           75636000                       # Layer occupancy (ticks)
system.membus.respLayer1.utilization              0.5                       # Layer utilization (%)
system.tol2bus.snoop_filter.tot_requests        28452                       # Total number of requests made to the snoop filter.
system.tol2bus.snoop_filter.hit_single_requests        14226                       # Number of requests hitting in the snoop filter with a single holder of the requested data.
system.tol2bus.snoop_filter.hit_multi_requests            0                       # Number of requests hitting in the snoop filter with multiple (>1) holders of the requested data.
system.tol2bus.snoop_filter.tot_snoops              0                       # Total number of snoops made to the snoop filter.
system.tol2bus.snoop_filter.hit_single_snoops            0                       # Number of snoops hitting in the snoop filter with a single holder of the requested data.
system.tol2bus.snoop_filter.hit_multi_snoops            0                       # Number of snoops hitting in the snoop filter with multiple (>1) holders of the requested data.
system.tol2bus.pwrStateResidencyTicks::UNDEFINED  15267344125                       # Cumulative time (in ticks) in various power states
system.tol2bus.trans_dist::ReadResp             14226                       # Transaction distribution
system.tol2bus.trans_dist::WritebackDirty        26758                       # Transaction distribution
system.tol2bus.trans_dist::CleanEvict            1669                       # Transaction distribution
system.tol2bus.trans_dist::ReadSharedReq        14226                       # Transaction distribution
system.tol2bus.pkt_count_system.cpu0.dcache.mem_side::system.l2.cpu_side        42678                       # Packet count per connected master and slave (bytes)
system.tol2bus.pkt_count::total                 42678                       # Packet count per connected master and slave (bytes)
system.tol2bus.pkt_size_system.cpu0.dcache.mem_side::system.l2.cpu_side      1766400                       # Cumulative packet size per connected master and slave (bytes)
system.tol2bus.pkt_size::total                1766400                       # Cumulative packet size per connected master and slave (bytes)
system.tol2bus.snoops                           14201                       # Total snoops (count)
system.tol2bus.snoopTraffic                    856576                       # Total snoop traffic (bytes)
system.tol2bus.snoop_fanout::samples            28427                       # Request fanout histogram
system.tol2bus.snoop_fanout::mean                   0                       # Request fanout histogram
system.tol2bus.snoop_fanout::stdev                  0                       # Request fanout histogram
system.tol2bus.snoop_fanout::underflows             0      0.00%      0.00% # Request fanout histogram
system.tol2bus.snoop_fanout::0                  28427    100.00%    100.00% # Request fanout histogram
system.tol2bus.snoop_fanout::1                      0      0.00%    100.00% # Request fanout histogram
system.tol2bus.snoop_fanout::2                      0      0.00%    100.00% # Request fanout histogram
system.tol2bus.snoop_fanout::3                      0      0.00%    100.00% # Request fanout histogram
system.tol2bus.snoop_fanout::4                      0      0.00%    100.00% # Request fanout histogram
system.tol2bus.snoop_fanout::5                      0      0.00%    100.00% # Request fanout histogram
system.tol2bus.snoop_fanout::6                      0      0.00%    100.00% # Request fanout histogram
system.tol2bus.snoop_fanout::7                      0      0.00%    100.00% # Request fanout histogram
system.tol2bus.snoop_fanout::8                      0      0.00%    100.00% # Request fanout histogram
system.tol2bus.snoop_fanout::9                      0      0.00%    100.00% # Request fanout histogram
system.tol2bus.snoop_fanout::10                     0      0.00%    100.00% # Request fanout histogram
system.tol2bus.snoop_fanout::11                     0      0.00%    100.00% # Request fanout histogram
system.tol2bus.snoop_fanout::12                     0      0.00%    100.00% # Request fanout histogram
system.tol2bus.snoop_fanout::13                     0      0.00%    100.00% # Request fanout histogram
system.tol2bus.snoop_fanout::14                     0      0.00%    100.00% # Request fanout histogram
system.tol2bus.snoop_fanout::15                     0      0.00%    100.00% # Request fanout histogram
system.tol2bus.snoop_fanout::16                     0      0.00%    100.00% # Request fanout histogram
system.tol2bus.snoop_fanout::overflows              0      0.00%    100.00% # Request fanout histogram
system.tol2bus.snoop_fanout::min_value              0                       # Request fanout histogram
system.tol2bus.snoop_fanout::max_value              0                       # Request fanout histogram
system.tol2bus.snoop_fanout::total              28427                       # Request fanout histogram
system.tol2bus.reqLayer0.occupancy           27600000                       # Layer occupancy (ticks)
system.tol2bus.reqLayer0.utilization              0.2                       # Layer utilization (%)
system.tol2bus.respLayer1.occupancy          21339000                       # Layer occupancy (ticks)
system.tol2bus.respLayer1.utilization             0.1                       # Layer utilization (%)

---------- End Simulation Statistics   ----------
