
---------- Begin Simulation Statistics ----------
sim_seconds                                  0.015267                       # Number of seconds simulated
sim_ticks                                 15267344125                       # Number of ticks simulated
final_tick                               4244321666750                       # Number of ticks from beginning of simulation (restored from checkpoints and never reset)
sim_freq                                 1000000000000                       # Frequency of simulated ticks
host_inst_rate                               67482822                       # Simulator instruction rate (inst/s)
host_op_rate                                125322336                       # Simulator op (including micro ops) rate (op/s)
host_tick_rate                              179410775                       # Simulator tick rate (ticks/s)
host_mem_usage                                2332532                       # Number of bytes of host memory used
host_seconds                                    85.10                       # Real time elapsed on the host
sim_insts                                  5742592941                       # Number of instructions simulated
sim_ops                                   10664570511                       # Number of ops (including micro ops) simulated
system.voltage_domain.voltage                       1                       # Voltage in Volts
system.clk_domain.clock                          1000                       # Clock period in ticks
system.mem_ctrls.pwrStateResidencyTicks::UNDEFINED  15267344125                       # Cumulative time (in ticks) in various power states
system.mem_ctrls.bytes_read::cpu0.data       11276288                       # Number of bytes read from this memory
system.mem_ctrls.bytes_read::total           11276288                       # Number of bytes read from this memory
system.mem_ctrls.bytes_written::writebacks        30656                       # Number of bytes written to this memory
system.mem_ctrls.bytes_written::total           30656                       # Number of bytes written to this memory
system.mem_ctrls.num_reads::cpu0.data          176192                       # Number of read requests responded to by this memory
system.mem_ctrls.num_reads::total              176192                       # Number of read requests responded to by this memory
system.mem_ctrls.num_writes::writebacks           479                       # Number of write requests responded to by this memory
system.mem_ctrls.num_writes::total                479                       # Number of write requests responded to by this memory
system.mem_ctrls.bw_read::cpu0.data         738588710                       # Total read bandwidth from this memory (bytes/s)
system.mem_ctrls.bw_read::total             738588710                       # Total read bandwidth from this memory (bytes/s)
system.mem_ctrls.bw_write::writebacks         2007946                       # Write bandwidth from this memory (bytes/s)
system.mem_ctrls.bw_write::total              2007946                       # Write bandwidth from this memory (bytes/s)
system.mem_ctrls.bw_total::writebacks         2007946                       # Total bandwidth to/from this memory (bytes/s)
system.mem_ctrls.bw_total::cpu0.data        738588710                       # Total bandwidth to/from this memory (bytes/s)
system.mem_ctrls.bw_total::total            740596656                       # Total bandwidth to/from this memory (bytes/s)
system.mem_ctrls.readReqs                      176191                       # Number of read requests accepted
system.mem_ctrls.writeReqs                        479                       # Number of write requests accepted
system.mem_ctrls.readBursts                    176191                       # Number of DRAM read bursts, including those serviced by the write queue
system.mem_ctrls.writeBursts                      479                       # Number of DRAM write bursts, including those merged in the write queue
system.mem_ctrls.bytesReadDRAM               11271424                       # Total number of bytes read from DRAM
system.mem_ctrls.bytesReadWrQ                    4800                       # Total number of bytes read from write queue
system.mem_ctrls.bytesWritten                   30848                       # Total number of bytes written to DRAM
system.mem_ctrls.bytesReadSys                11276224                       # Total read bytes from the system interface side
system.mem_ctrls.bytesWrittenSys                30656                       # Total written bytes from the system interface side
system.mem_ctrls.servicedByWrQ                     75                       # Number of DRAM read bursts serviced by the write queue
system.mem_ctrls.mergedWrBursts                     0                       # Number of DRAM write bursts merged with an existing one
system.mem_ctrls.neitherReadNorWriteReqs            0                       # Number of requests that are neither read nor write
system.mem_ctrls.perBankRdBursts::0             10750                       # Per bank write bursts
system.mem_ctrls.perBankRdBursts::1             10707                       # Per bank write bursts
system.mem_ctrls.perBankRdBursts::2             10581                       # Per bank write bursts
system.mem_ctrls.perBankRdBursts::3             11629                       # Per bank write bursts
system.mem_ctrls.perBankRdBursts::4             11827                       # Per bank write bursts
system.mem_ctrls.perBankRdBursts::5             11446                       # Per bank write bursts
system.mem_ctrls.perBankRdBursts::6             11271                       # Per bank write bursts
system.mem_ctrls.perBankRdBursts::7             11066                       # Per bank write bursts
system.mem_ctrls.perBankRdBursts::8             10913                       # Per bank write bursts
system.mem_ctrls.perBankRdBursts::9             10921                       # Per bank write bursts
system.mem_ctrls.perBankRdBursts::10            10537                       # Per bank write bursts
system.mem_ctrls.perBankRdBursts::11            10521                       # Per bank write bursts
system.mem_ctrls.perBankRdBursts::12            10945                       # Per bank write bursts
system.mem_ctrls.perBankRdBursts::13            11049                       # Per bank write bursts
system.mem_ctrls.perBankRdBursts::14            11019                       # Per bank write bursts
system.mem_ctrls.perBankRdBursts::15            10934                       # Per bank write bursts
system.mem_ctrls.perBankWrBursts::0                 0                       # Per bank write bursts
system.mem_ctrls.perBankWrBursts::1                 0                       # Per bank write bursts
system.mem_ctrls.perBankWrBursts::2                 1                       # Per bank write bursts
system.mem_ctrls.perBankWrBursts::3                92                       # Per bank write bursts
system.mem_ctrls.perBankWrBursts::4               100                       # Per bank write bursts
system.mem_ctrls.perBankWrBursts::5               122                       # Per bank write bursts
system.mem_ctrls.perBankWrBursts::6               109                       # Per bank write bursts
system.mem_ctrls.perBankWrBursts::7                 4                       # Per bank write bursts
system.mem_ctrls.perBankWrBursts::8                17                       # Per bank write bursts
system.mem_ctrls.perBankWrBursts::9                 0                       # Per bank write bursts
system.mem_ctrls.perBankWrBursts::10                0                       # Per bank write bursts
system.mem_ctrls.perBankWrBursts::11                0                       # Per bank write bursts
system.mem_ctrls.perBankWrBursts::12                0                       # Per bank write bursts
system.mem_ctrls.perBankWrBursts::13                0                       # Per bank write bursts
system.mem_ctrls.perBankWrBursts::14                0                       # Per bank write bursts
system.mem_ctrls.perBankWrBursts::15               37                       # Per bank write bursts
system.mem_ctrls.numRdRetry                         0                       # Number of times read queue was full causing retry
system.mem_ctrls.numWrRetry                         0                       # Number of times write queue was full causing retry
system.mem_ctrls.totGap                   15267284000                       # Total gap between requests
system.mem_ctrls.readPktSize::0                     0                       # Read request sizes (log2)
system.mem_ctrls.readPktSize::1                     0                       # Read request sizes (log2)
system.mem_ctrls.readPktSize::2                     0                       # Read request sizes (log2)
system.mem_ctrls.readPktSize::3                     0                       # Read request sizes (log2)
system.mem_ctrls.readPktSize::4                     0                       # Read request sizes (log2)
system.mem_ctrls.readPktSize::5                     0                       # Read request sizes (log2)
system.mem_ctrls.readPktSize::6                176191                       # Read request sizes (log2)
system.mem_ctrls.writePktSize::0                    0                       # Write request sizes (log2)
system.mem_ctrls.writePktSize::1                    0                       # Write request sizes (log2)
system.mem_ctrls.writePktSize::2                    0                       # Write request sizes (log2)
system.mem_ctrls.writePktSize::3                    0                       # Write request sizes (log2)
system.mem_ctrls.writePktSize::4                    0                       # Write request sizes (log2)
system.mem_ctrls.writePktSize::5                    0                       # Write request sizes (log2)
system.mem_ctrls.writePktSize::6                  479                       # Write request sizes (log2)
system.mem_ctrls.rdQLenPdf::0                  135704                       # What read queue length does an incoming req see
system.mem_ctrls.rdQLenPdf::1                   37885                       # What read queue length does an incoming req see
system.mem_ctrls.rdQLenPdf::2                    2471                       # What read queue length does an incoming req see
system.mem_ctrls.rdQLenPdf::3                      56                       # What read queue length does an incoming req see
system.mem_ctrls.rdQLenPdf::4                       0                       # What read queue length does an incoming req see
system.mem_ctrls.rdQLenPdf::5                       0                       # What read queue length does an incoming req see
system.mem_ctrls.rdQLenPdf::6                       0                       # What read queue length does an incoming req see
system.mem_ctrls.rdQLenPdf::7                       0                       # What read queue length does an incoming req see
system.mem_ctrls.rdQLenPdf::8                       0                       # What read queue length does an incoming req see
system.mem_ctrls.rdQLenPdf::9                       0                       # What read queue length does an incoming req see
system.mem_ctrls.rdQLenPdf::10                      0                       # What read queue length does an incoming req see
system.mem_ctrls.rdQLenPdf::11                      0                       # What read queue length does an incoming req see
system.mem_ctrls.rdQLenPdf::12                      0                       # What read queue length does an incoming req see
system.mem_ctrls.rdQLenPdf::13                      0                       # What read queue length does an incoming req see
system.mem_ctrls.rdQLenPdf::14                      0                       # What read queue length does an incoming req see
system.mem_ctrls.rdQLenPdf::15                      0                       # What read queue length does an incoming req see
system.mem_ctrls.rdQLenPdf::16                      0                       # What read queue length does an incoming req see
system.mem_ctrls.rdQLenPdf::17                      0                       # What read queue length does an incoming req see
system.mem_ctrls.rdQLenPdf::18                      0                       # What read queue length does an incoming req see
system.mem_ctrls.rdQLenPdf::19                      0                       # What read queue length does an incoming req see
system.mem_ctrls.rdQLenPdf::20                      0                       # What read queue length does an incoming req see
system.mem_ctrls.rdQLenPdf::21                      0                       # What read queue length does an incoming req see
system.mem_ctrls.rdQLenPdf::22                      0                       # What read queue length does an incoming req see
system.mem_ctrls.rdQLenPdf::23                      0                       # What read queue length does an incoming req see
system.mem_ctrls.rdQLenPdf::24                      0                       # What read queue length does an incoming req see
system.mem_ctrls.rdQLenPdf::25                      0                       # What read queue length does an incoming req see
system.mem_ctrls.rdQLenPdf::26                      0                       # What read queue length does an incoming req see
system.mem_ctrls.rdQLenPdf::27                      0                       # What read queue length does an incoming req see
system.mem_ctrls.rdQLenPdf::28                      0                       # What read queue length does an incoming req see
system.mem_ctrls.rdQLenPdf::29                      0                       # What read queue length does an incoming req see
system.mem_ctrls.rdQLenPdf::30                      0                       # What read queue length does an incoming req see
system.mem_ctrls.rdQLenPdf::31                      0                       # What read queue length does an incoming req see
system.mem_ctrls.wrQLenPdf::0                       0                       # What write queue length does an incoming req see
system.mem_ctrls.wrQLenPdf::1                       0                       # What write queue length does an incoming req see
system.mem_ctrls.wrQLenPdf::2                       0                       # What write queue length does an incoming req see
system.mem_ctrls.wrQLenPdf::3                       0                       # What write queue length does an incoming req see
system.mem_ctrls.wrQLenPdf::4                       0                       # What write queue length does an incoming req see
system.mem_ctrls.wrQLenPdf::5                       0                       # What write queue length does an incoming req see
system.mem_ctrls.wrQLenPdf::6                       0                       # What write queue length does an incoming req see
system.mem_ctrls.wrQLenPdf::7                       0                       # What write queue length does an incoming req see
system.mem_ctrls.wrQLenPdf::8                       0                       # What write queue length does an incoming req see
system.mem_ctrls.wrQLenPdf::9                       0                       # What write queue length does an incoming req see
system.mem_ctrls.wrQLenPdf::10                      0                       # What write queue length does an incoming req see
system.mem_ctrls.wrQLenPdf::11                      0                       # What write queue length does an incoming req see
system.mem_ctrls.wrQLenPdf::12                      0                       # What write queue length does an incoming req see
system.mem_ctrls.wrQLenPdf::13                      0                       # What write queue length does an incoming req see
system.mem_ctrls.wrQLenPdf::14                      0                       # What write queue length does an incoming req see
system.mem_ctrls.wrQLenPdf::15                      1                       # What write queue length does an incoming req see
system.mem_ctrls.wrQLenPdf::16                      1                       # What write queue length does an incoming req see
system.mem_ctrls.wrQLenPdf::17                     30                       # What write queue length does an incoming req see
system.mem_ctrls.wrQLenPdf::18                     30                       # What write queue length does an incoming req see
system.mem_ctrls.wrQLenPdf::19                     30                       # What write queue length does an incoming req see
system.mem_ctrls.wrQLenPdf::20                     29                       # What write queue length does an incoming req see
system.mem_ctrls.wrQLenPdf::21                     29                       # What write queue length does an incoming req see
system.mem_ctrls.wrQLenPdf::22                     29                       # What write queue length does an incoming req see
system.mem_ctrls.wrQLenPdf::23                     30                       # What write queue length does an incoming req see
system.mem_ctrls.wrQLenPdf::24                     30                       # What write queue length does an incoming req see
system.mem_ctrls.wrQLenPdf::25                     30                       # What write queue length does an incoming req see
system.mem_ctrls.wrQLenPdf::26                     30                       # What write queue length does an incoming req see
system.mem_ctrls.wrQLenPdf::27                     30                       # What write queue length does an incoming req see
system.mem_ctrls.wrQLenPdf::28                     30                       # What write queue length does an incoming req see
system.mem_ctrls.wrQLenPdf::29                     30                       # What write queue length does an incoming req see
system.mem_ctrls.wrQLenPdf::30                     30                       # What write queue length does an incoming req see
system.mem_ctrls.wrQLenPdf::31                     30                       # What write queue length does an incoming req see
system.mem_ctrls.wrQLenPdf::32                     30                       # What write queue length does an incoming req see
system.mem_ctrls.wrQLenPdf::33                      0                       # What write queue length does an incoming req see
system.mem_ctrls.wrQLenPdf::34                      0                       # What write queue length does an incoming req see
system.mem_ctrls.wrQLenPdf::35                      0                       # What write queue length does an incoming req see
system.mem_ctrls.wrQLenPdf::36                      0                       # What write queue length does an incoming req see
system.mem_ctrls.wrQLenPdf::37                      0                       # What write queue length does an incoming req see
system.mem_ctrls.wrQLenPdf::38                      0                       # What write queue length does an incoming req see
system.mem_ctrls.wrQLenPdf::39                      0                       # What write queue length does an incoming req see
system.mem_ctrls.wrQLenPdf::40                      0                       # What write queue length does an incoming req see
system.mem_ctrls.wrQLenPdf::41                      0                       # What write queue length does an incoming req see
system.mem_ctrls.wrQLenPdf::42                      0                       # What write queue length does an incoming req see
system.mem_ctrls.wrQLenPdf::43                      0                       # What write queue length does an incoming req see
system.mem_ctrls.wrQLenPdf::44                      0                       # What write queue length does an incoming req see
system.mem_ctrls.wrQLenPdf::45                      0                       # What write queue length does an incoming req see
system.mem_ctrls.wrQLenPdf::46                      0                       # What write queue length does an incoming req see
system.mem_ctrls.wrQLenPdf::47                      0                       # What write queue length does an incoming req see
system.mem_ctrls.wrQLenPdf::48                      0                       # What write queue length does an incoming req see
system.mem_ctrls.wrQLenPdf::49                      0                       # What write queue length does an incoming req see
system.mem_ctrls.wrQLenPdf::50                      0                       # What write queue length does an incoming req see
system.mem_ctrls.wrQLenPdf::51                      0                       # What write queue length does an incoming req see
system.mem_ctrls.wrQLenPdf::52                      0                       # What write queue length does an incoming req see
system.mem_ctrls.wrQLenPdf::53                      0                       # What write queue length does an incoming req see
system.mem_ctrls.wrQLenPdf::54                      0                       # What write queue length does an incoming req see
system.mem_ctrls.wrQLenPdf::55                      0                       # What write queue length does an incoming req see
system.mem_ctrls.wrQLenPdf::56                      0                       # What write queue length does an incoming req see
system.mem_ctrls.wrQLenPdf::57                      0                       # What write queue length does an incoming req see
system.mem_ctrls.wrQLenPdf::58                      0                       # What write queue length does an incoming req see
system.mem_ctrls.wrQLenPdf::59                      0                       # What write queue length does an incoming req see
system.mem_ctrls.wrQLenPdf::60                      0                       # What write queue length does an incoming req see
system.mem_ctrls.wrQLenPdf::61                      0                       # What write queue length does an incoming req see
system.mem_ctrls.wrQLenPdf::62                      0                       # What write queue length does an incoming req see
system.mem_ctrls.wrQLenPdf::63                      0                       # What write queue length does an incoming req see
system.mem_ctrls.bytesPerActivate::samples        94881                       # Bytes accessed per row activation
system.mem_ctrls.bytesPerActivate::mean    119.125220                       # Bytes accessed per row activation
system.mem_ctrls.bytesPerActivate::gmean   102.934399                       # Bytes accessed per row activation
system.mem_ctrls.bytesPerActivate::stdev    71.744734                       # Bytes accessed per row activation
system.mem_ctrls.bytesPerActivate::0-127        46699     49.22%     49.22% # Bytes accessed per row activation
system.mem_ctrls.bytesPerActivate::128-255        39832     41.98%     91.20% # Bytes accessed per row activation
system.mem_ctrls.bytesPerActivate::256-383         7347      7.74%     98.94% # Bytes accessed per row activation
system.mem_ctrls.bytesPerActivate::384-511          875      0.92%     99.87% # Bytes accessed per row activation
system.mem_ctrls.bytesPerActivate::512-639          103      0.11%     99.97% # Bytes accessed per row activation
system.mem_ctrls.bytesPerActivate::640-767           12      0.01%     99.99% # Bytes accessed per row activation
system.mem_ctrls.bytesPerActivate::768-895            1      0.00%     99.99% # Bytes accessed per row activation
system.mem_ctrls.bytesPerActivate::896-1023            5      0.01%     99.99% # Bytes accessed per row activation
system.mem_ctrls.bytesPerActivate::1024-1151            7      0.01%    100.00% # Bytes accessed per row activation
system.mem_ctrls.bytesPerActivate::total        94881                       # Bytes accessed per row activation
system.mem_ctrls.rdPerTurnAround::samples           30                       # Reads before turning the bus around for writes
system.mem_ctrls.rdPerTurnAround::mean    5925.033333                       # Reads before turning the bus around for writes
system.mem_ctrls.rdPerTurnAround::gmean   5806.564057                       # Reads before turning the bus around for writes
system.mem_ctrls.rdPerTurnAround::stdev   1202.623669                       # Reads before turning the bus around for writes
system.mem_ctrls.rdPerTurnAround::3584-4095            2      6.67%      6.67% # Reads before turning the bus around for writes
system.mem_ctrls.rdPerTurnAround::4096-4607            2      6.67%     13.33% # Reads before turning the bus around for writes
system.mem_ctrls.rdPerTurnAround::4608-5119            2      6.67%     20.00% # Reads before turning the bus around for writes
system.mem_ctrls.rdPerTurnAround::5120-5631            5     16.67%     36.67% # Reads before turning the bus around for writes
system.mem_ctrls.rdPerTurnAround::5632-6143            8     26.67%     63.33% # Reads before turning the bus around for writes
system.mem_ctrls.rdPerTurnAround::6144-6655            4     13.33%     76.67% # Reads before turning the bus around for writes
system.mem_ctrls.rdPerTurnAround::6656-7167            2      6.67%     83.33% # Reads before turning the bus around for writes
system.mem_ctrls.rdPerTurnAround::7168-7679            3     10.00%     93.33% # Reads before turning the bus around for writes
system.mem_ctrls.rdPerTurnAround::7680-8191            1      3.33%     96.67% # Reads before turning the bus around for writes
system.mem_ctrls.rdPerTurnAround::8704-9215            1      3.33%    100.00% # Reads before turning the bus around for writes
system.mem_ctrls.rdPerTurnAround::total            30                       # Reads before turning the bus around for writes
system.mem_ctrls.wrPerTurnAround::samples           30                       # Writes before turning the bus around for reads
system.mem_ctrls.wrPerTurnAround::mean      16.066667                       # Writes before turning the bus around for reads
system.mem_ctrls.wrPerTurnAround::gmean     16.062941                       # Writes before turning the bus around for reads
system.mem_ctrls.wrPerTurnAround::stdev      0.365148                       # Writes before turning the bus around for reads
system.mem_ctrls.wrPerTurnAround::16               29     96.67%     96.67% # Writes before turning the bus around for reads
system.mem_ctrls.wrPerTurnAround::18                1      3.33%    100.00% # Writes before turning the bus around for reads
system.mem_ctrls.wrPerTurnAround::total            30                       # Writes before turning the bus around for reads
system.mem_ctrls.totQLat                   4481809500                       # Total ticks spent queuing
system.mem_ctrls.totMemAccLat              7783984500                       # Total ticks spent from burst creation until serviced by the DRAM
system.mem_ctrls.totBusLat                  880580000                       # Total ticks spent in databus transfers
system.mem_ctrls.avgQLat                     25448.05                       # Average queueing delay per DRAM burst
system.mem_ctrls.avgBusLat                    5000.00                       # Average bus latency per DRAM burst
system.mem_ctrls.avgMemAccLat                44198.05                       # Average memory access latency per DRAM burst
system.mem_ctrls.avgRdBW                       738.27                       # Average DRAM read bandwidth in MiByte/s
system.mem_ctrls.avgWrBW                         2.02                       # Average achieved write bandwidth in MiByte/s
system.mem_ctrls.avgRdBWSys                    738.58                       # Average system read bandwidth in MiByte/s
system.mem_ctrls.avgWrBWSys                      2.01                       # Average system write bandwidth in MiByte/s
system.mem_ctrls.peakBW                      12800.00                       # Theoretical peak bandwidth in MiByte/s
system.mem_ctrls.busUtil                         5.78                       # Data bus utilization in percentage
system.mem_ctrls.busUtilRead                     5.77                       # Data bus utilization in percentage for reads
system.mem_ctrls.busUtilWrite                    0.02                       # Data bus utilization in percentage for writes
system.mem_ctrls.avgRdQLen                       1.28                       # Average read queue length when enqueuing
system.mem_ctrls.avgWrQLen                      25.53                       # Average write queue length when enqueuing
system.mem_ctrls.readRowHits                    81319                       # Number of row buffer hits during reads
system.mem_ctrls.writeRowHits                     398                       # Number of row buffer hits during writes
system.mem_ctrls.readRowHitRate                 46.17                       # Row buffer hit rate for reads
system.mem_ctrls.writeRowHitRate                83.09                       # Row buffer hit rate for writes
system.mem_ctrls.avgGap                      86416.96                       # Average gap between requests
system.mem_ctrls.pageHitRate                    46.27                       # Row buffer hit rate, read and write combined
system.mem_ctrls_0.actEnergy                343148400                       # Energy for activate commands per rank (pJ)
system.mem_ctrls_0.preEnergy                182387700                       # Energy for precharge commands per rank (pJ)
system.mem_ctrls_0.readEnergy               637437780                       # Energy for read commands per rank (pJ)
system.mem_ctrls_0.writeEnergy                2234160                       # Energy for write commands per rank (pJ)
system.mem_ctrls_0.refreshEnergy         1205923680.000000                       # Energy for refresh commands per rank (pJ)
system.mem_ctrls_0.actBackEnergy           1554989070                       # Energy for active background per rank (pJ)
system.mem_ctrls_0.preBackEnergy             24789120                       # Energy for precharge background per rank (pJ)
system.mem_ctrls_0.actPowerDownEnergy      5211694110                       # Energy for active power-down per rank (pJ)
system.mem_ctrls_0.prePowerDownEnergy       137218080                       # Energy for precharge power-down per rank (pJ)
system.mem_ctrls_0.selfRefreshEnergy          2600280                       # Energy for self refresh per rank (pJ)
system.mem_ctrls_0.totalEnergy             9302422380                       # Total energy per rank (pJ)
system.mem_ctrls_0.averagePower            609.301939                       # Core power per rank (mW)
system.mem_ctrls_0.totalIdleTime          11793405875                       # Total Idle time Per DRAM Rank
system.mem_ctrls_0.memoryStateTime::IDLE     10050000                       # Time in different power states
system.mem_ctrls_0.memoryStateTime::REF     510138000                       # Time in different power states
system.mem_ctrls_0.memoryStateTime::SREF      6233500                       # Time in different power states
system.mem_ctrls_0.memoryStateTime::PRE_PDN    357391250                       # Time in different power states
system.mem_ctrls_0.memoryStateTime::ACT    2953703250                       # Time in different power states
system.mem_ctrls_0.memoryStateTime::ACT_PDN  11429828125                       # Time in different power states
system.mem_ctrls_1.actEnergy                334301940                       # Energy for activate commands per rank (pJ)
system.mem_ctrls_1.preEnergy                177685695                       # Energy for precharge commands per rank (pJ)
system.mem_ctrls_1.readEnergy               620030460                       # Energy for read commands per rank (pJ)
system.mem_ctrls_1.writeEnergy                 281880                       # Energy for write commands per rank (pJ)
system.mem_ctrls_1.refreshEnergy         1206538320.000000                       # Energy for refresh commands per rank (pJ)
system.mem_ctrls_1.actBackEnergy           1519028340                       # Energy for active background per rank (pJ)
system.mem_ctrls_1.preBackEnergy             24822240                       # Energy for precharge background per rank (pJ)
system.mem_ctrls_1.actPowerDownEnergy      5253631860                       # Energy for active power-down per rank (pJ)
system.mem_ctrls_1.prePowerDownEnergy       132863040                       # Energy for precharge power-down per rank (pJ)
system.mem_ctrls_1.selfRefreshEnergy          2707920                       # Energy for self refresh per rank (pJ)
system.mem_ctrls_1.totalEnergy             9271891695                       # Total energy per rank (pJ)
system.mem_ctrls_1.averagePower            607.302201                       # Core power per rank (mW)
system.mem_ctrls_1.totalIdleTime          11871239500                       # Total Idle time Per DRAM Rank
system.mem_ctrls_1.memoryStateTime::IDLE     10098000                       # Time in different power states
system.mem_ctrls_1.memoryStateTime::REF     510398000                       # Time in different power states
system.mem_ctrls_1.memoryStateTime::SREF      4380000                       # Time in different power states
system.mem_ctrls_1.memoryStateTime::PRE_PDN    346106000                       # Time in different power states
system.mem_ctrls_1.memoryStateTime::ACT    2875015625                       # Time in different power states
system.mem_ctrls_1.memoryStateTime::ACT_PDN  11521346500                       # Time in different power states
system.pwrStateResidencyTicks::UNDEFINED  15267344125                       # Cumulative time (in ticks) in various power states
system.cpu0.branchPred.lookups                1885108                       # Number of BP lookups
system.cpu0.branchPred.condPredicted          1885108                       # Number of conditional branches predicted
system.cpu0.branchPred.condIncorrect            75975                       # Number of conditional branches incorrect
system.cpu0.branchPred.BTBLookups             1380805                       # Number of BTB lookups
system.cpu0.branchPred.BTBHits                      0                       # Number of BTB hits
system.cpu0.branchPred.BTBCorrect                   0                       # Number of correct BTB predictions (this stat may not work properly.
system.cpu0.branchPred.BTBHitPct             0.000000                       # BTB Hit Percentage
system.cpu0.branchPred.usedRAS                  50647                       # Number of times the RAS was used to get a target.
system.cpu0.branchPred.RASInCorrect              7646                       # Number of incorrect RAS predictions.
system.cpu0.branchPred.indirectLookups        1380805                       # Number of indirect predictor lookups.
system.cpu0.branchPred.indirectHits            818119                       # Number of indirect target hits.
system.cpu0.branchPred.indirectMisses          562686                       # Number of indirect misses.
system.cpu0.branchPredindirectMispredicted        23378                       # Number of mispredicted indirect branches.
system.cpu_voltage_domain.voltage                   1                       # Voltage in Volts
system.cpu_clk_domain.clock                       500                       # Clock period in ticks
system.cpu0.dtb.walker.pwrStateResidencyTicks::UNDEFINED  15267344125                       # Cumulative time (in ticks) in various power states
system.cpu0.dtb.rdAccesses                     921305                       # TLB accesses on read requests
system.cpu0.dtb.wrAccesses                      68443                       # TLB accesses on write requests
system.cpu0.dtb.rdMisses                       200044                       # TLB misses on read requests
system.cpu0.dtb.wrMisses                         1042                       # TLB misses on write requests
system.cpu0.apic_clk_domain.clock                8000                       # Clock period in ticks
system.cpu0.interrupts.pwrStateResidencyTicks::UNDEFINED  15267344125                       # Cumulative time (in ticks) in various power states
system.cpu0.itb.walker.pwrStateResidencyTicks::UNDEFINED  15267344125                       # Cumulative time (in ticks) in various power states
system.cpu0.itb.rdAccesses                          0                       # TLB accesses on read requests
system.cpu0.itb.wrAccesses                    1616641                       # TLB accesses on write requests
system.cpu0.itb.rdMisses                            0                       # TLB misses on read requests
system.cpu0.itb.wrMisses                         6002                       # TLB misses on write requests
system.cpu0.workload.numSyscalls                    0                       # Number of system calls
system.cpu0.pwrStateResidencyTicks::ON    15267344125                       # Cumulative time (in ticks) in various power states
system.cpu0.numCycles                        30534688                       # number of cpu cycles simulated
system.cpu0.numWorkItemsStarted                     0                       # number of work items this cpu started
system.cpu0.numWorkItemsCompleted                   0                       # number of work items this cpu completed
system.cpu0.fetch.icacheStallCycles           1648738                       # Number of cycles fetch is stalled on an Icache miss
system.cpu0.fetch.Insts                       5472862                       # Number of instructions fetch has processed
system.cpu0.fetch.Branches                    1885108                       # Number of branches that fetch encountered
system.cpu0.fetch.predictedBranches            868766                       # Number of branches that fetch has predicted taken
system.cpu0.fetch.Cycles                     28718491                       # Number of cycles fetch has run and was not squashing or blocked
system.cpu0.fetch.SquashCycles                 155878                       # Number of cycles fetch has spent squashing
system.cpu0.fetch.TlbCycles                      1330                       # Number of cycles fetch has spent waiting for tlb
system.cpu0.fetch.MiscStallCycles                1379                       # Number of cycles fetch has spent waiting on interrupts, or bad addresses, or out of MSHRs
system.cpu0.fetch.PendingTrapStallCycles        49094                       # Number of stall cycles due to pending traps
system.cpu0.fetch.PendingQuiesceStallCycles            3                       # Number of stall cycles due to pending quiesce instructions
system.cpu0.fetch.CacheLines                  1610639                       # Number of cache lines fetched
system.cpu0.fetch.IcacheSquashes                 9830                       # Number of outstanding Icache misses that were squashed
system.cpu0.fetch.ItlbSquashes                      5                       # Number of outstanding ITLB misses that were squashed
system.cpu0.fetch.rateDist::samples          30496974                       # Number of instructions fetched each cycle (Total)
system.cpu0.fetch.rateDist::mean             0.360390                       # Number of instructions fetched each cycle (Total)
system.cpu0.fetch.rateDist::stdev            1.502800                       # Number of instructions fetched each cycle (Total)
system.cpu0.fetch.rateDist::underflows              0      0.00%      0.00% # Number of instructions fetched each cycle (Total)
system.cpu0.fetch.rateDist::0                28353710     92.97%     92.97% # Number of instructions fetched each cycle (Total)
system.cpu0.fetch.rateDist::1                   21430      0.07%     93.04% # Number of instructions fetched each cycle (Total)
system.cpu0.fetch.rateDist::2                  801649      2.63%     95.67% # Number of instructions fetched each cycle (Total)
system.cpu0.fetch.rateDist::3                   31245      0.10%     95.77% # Number of instructions fetched each cycle (Total)
system.cpu0.fetch.rateDist::4                  151179      0.50%     96.27% # Number of instructions fetched each cycle (Total)
system.cpu0.fetch.rateDist::5                   66616      0.22%     96.49% # Number of instructions fetched each cycle (Total)
system.cpu0.fetch.rateDist::6                  104094      0.34%     96.83% # Number of instructions fetched each cycle (Total)
system.cpu0.fetch.rateDist::7                   26439      0.09%     96.92% # Number of instructions fetched each cycle (Total)
system.cpu0.fetch.rateDist::8                  940612      3.08%    100.00% # Number of instructions fetched each cycle (Total)
system.cpu0.fetch.rateDist::overflows               0      0.00%    100.00% # Number of instructions fetched each cycle (Total)
system.cpu0.fetch.rateDist::min_value               0                       # Number of instructions fetched each cycle (Total)
system.cpu0.fetch.rateDist::max_value               8                       # Number of instructions fetched each cycle (Total)
system.cpu0.fetch.rateDist::total            30496974                       # Number of instructions fetched each cycle (Total)
system.cpu0.fetch.branchRate                 0.061737                       # Number of branch fetches per cycle
system.cpu0.fetch.rate                       0.179234                       # Number of inst fetches per cycle
system.cpu0.decode.IdleCycles                  812458                       # Number of cycles decode is idle
system.cpu0.decode.BlockedCycles             28193704                       # Number of cycles decode is blocked
system.cpu0.decode.RunCycles                  1031544                       # Number of cycles decode is running
system.cpu0.decode.UnblockCycles               381329                       # Number of cycles decode is unblocking
system.cpu0.decode.SquashCycles                 77939                       # Number of cycles decode is squashing
system.cpu0.decode.DecodedInsts               9174324                       # Number of instructions handled by decode
system.cpu0.rename.SquashCycles                 77939                       # Number of cycles rename is squashing
system.cpu0.rename.IdleCycles                  931862                       # Number of cycles rename is idle
system.cpu0.rename.BlockCycles               26727085                       # Number of cycles rename is blocking
system.cpu0.rename.serializeStallCycles         16019                       # count of cycles rename stalled for serializing inst
system.cpu0.rename.RunCycles                  1204851                       # Number of cycles rename is running
system.cpu0.rename.UnblockCycles              1539218                       # Number of cycles rename is unblocking
system.cpu0.rename.RenamedInsts               8822866                       # Number of instructions processed by rename
system.cpu0.rename.ROBFullEvents                63466                       # Number of times rename has blocked due to ROB full
system.cpu0.rename.IQFullEvents               1268659                       # Number of times rename has blocked due to IQ full
system.cpu0.rename.LQFullEvents                209037                       # Number of times rename has blocked due to LQ full
system.cpu0.rename.SQFullEvents                  3693                       # Number of times rename has blocked due to SQ full
system.cpu0.rename.RenamedOperands           10520984                       # Number of destination operands rename has renamed
system.cpu0.rename.RenameLookups             24610331                       # Number of register rename lookups that rename has made
system.cpu0.rename.int_rename_lookups        11562380                       # Number of integer rename lookups
system.cpu0.rename.fp_rename_lookups            49508                       # Number of floating rename lookups
system.cpu0.rename.CommittedMaps              4066750                       # Number of HB maps that are committed
system.cpu0.rename.UndoneMaps                 6454239                       # Number of HB maps that are undone due to squashing
system.cpu0.rename.serializingInsts               351                       # count of serializing insts renamed
system.cpu0.rename.tempSerializingInsts           423                       # count of temporary serializing insts renamed
system.cpu0.rename.skidInsts                  2419477                       # count of insts added to the skid buffer
system.cpu0.memDep0.insertedLoads             1590444                       # Number of loads inserted to the mem dependence unit.
system.cpu0.memDep0.insertedStores              96415                       # Number of stores inserted to the mem dependence unit.
system.cpu0.memDep0.conflictingLoads             6152                       # Number of conflicting loads.
system.cpu0.memDep0.conflictingStores            5679                       # Number of conflicting stores.
system.cpu0.iq.iqInstsAdded                   8398028                       # Number of instructions added to the IQ (excludes non-spec)
system.cpu0.iq.iqNonSpecInstsAdded               5014                       # Number of non-speculative instructions added to the IQ
system.cpu0.iq.iqInstsIssued                  6097318                       # Number of instructions issued
system.cpu0.iq.iqSquashedInstsIssued             7300                       # Number of squashed instructions issued
system.cpu0.iq.iqSquashedInstsExamined        5013141                       # Number of squashed instructions iterated over during squash; mainly for profiling
system.cpu0.iq.iqSquashedOperandsExamined     10605515                       # Number of squashed operands that are examined and possibly removed from graph
system.cpu0.iq.iqSquashedNonSpecRemoved          5014                       # Number of squashed non-spec instructions that were removed
system.cpu0.iq.issued_per_cycle::samples     30496974                       # Number of insts issued each cycle
system.cpu0.iq.issued_per_cycle::mean        0.199932                       # Number of insts issued each cycle
system.cpu0.iq.issued_per_cycle::stdev       0.810746                       # Number of insts issued each cycle
system.cpu0.iq.issued_per_cycle::underflows            0      0.00%      0.00% # Number of insts issued each cycle
system.cpu0.iq.issued_per_cycle::0           27990684     91.78%     91.78% # Number of insts issued each cycle
system.cpu0.iq.issued_per_cycle::1             990613      3.25%     95.03% # Number of insts issued each cycle
system.cpu0.iq.issued_per_cycle::2             536269      1.76%     96.79% # Number of insts issued each cycle
system.cpu0.iq.issued_per_cycle::3             368005      1.21%     98.00% # Number of insts issued each cycle
system.cpu0.iq.issued_per_cycle::4             356257      1.17%     99.16% # Number of insts issued each cycle
system.cpu0.iq.issued_per_cycle::5             108559      0.36%     99.52% # Number of insts issued each cycle
system.cpu0.iq.issued_per_cycle::6              88547      0.29%     99.81% # Number of insts issued each cycle
system.cpu0.iq.issued_per_cycle::7              33273      0.11%     99.92% # Number of insts issued each cycle
system.cpu0.iq.issued_per_cycle::8              24767      0.08%    100.00% # Number of insts issued each cycle
system.cpu0.iq.issued_per_cycle::overflows            0      0.00%    100.00% # Number of insts issued each cycle
system.cpu0.iq.issued_per_cycle::min_value            0                       # Number of insts issued each cycle
system.cpu0.iq.issued_per_cycle::max_value            8                       # Number of insts issued each cycle
system.cpu0.iq.issued_per_cycle::total       30496974                       # Number of insts issued each cycle
system.cpu0.iq.fu_full::No_OpClass                  0      0.00%      0.00% # attempts to use FU when none available
system.cpu0.iq.fu_full::IntAlu                  14003     71.26%     71.26% # attempts to use FU when none available
system.cpu0.iq.fu_full::IntMult                     0      0.00%     71.26% # attempts to use FU when none available
system.cpu0.iq.fu_full::IntDiv                      0      0.00%     71.26% # attempts to use FU when none available
system.cpu0.iq.fu_full::FloatAdd                 1487      7.57%     78.83% # attempts to use FU when none available
system.cpu0.iq.fu_full::FloatCmp                    0      0.00%     78.83% # attempts to use FU when none available
system.cpu0.iq.fu_full::FloatCvt                    0      0.00%     78.83% # attempts to use FU when none available
system.cpu0.iq.fu_full::FloatMult                   0      0.00%     78.83% # attempts to use FU when none available
system.cpu0.iq.fu_full::FloatMultAcc                0      0.00%     78.83% # attempts to use FU when none available
system.cpu0.iq.fu_full::FloatDiv                    0      0.00%     78.83% # attempts to use FU when none available
system.cpu0.iq.fu_full::FloatMisc                   0      0.00%     78.83% # attempts to use FU when none available
system.cpu0.iq.fu_full::FloatSqrt                   0      0.00%     78.83% # attempts to use FU when none available
system.cpu0.iq.fu_full::SimdAdd                     0      0.00%     78.83% # attempts to use FU when none available
system.cpu0.iq.fu_full::SimdAddAcc                  0      0.00%     78.83% # attempts to use FU when none available
system.cpu0.iq.fu_full::SimdAlu                     0      0.00%     78.83% # attempts to use FU when none available
system.cpu0.iq.fu_full::SimdCmp                     0      0.00%     78.83% # attempts to use FU when none available
system.cpu0.iq.fu_full::SimdCvt                     0      0.00%     78.83% # attempts to use FU when none available
system.cpu0.iq.fu_full::SimdMisc                    0      0.00%     78.83% # attempts to use FU when none available
system.cpu0.iq.fu_full::SimdMult                    0      0.00%     78.83% # attempts to use FU when none available
system.cpu0.iq.fu_full::SimdMultAcc                 0      0.00%     78.83% # attempts to use FU when none available
system.cpu0.iq.fu_full::SimdShift                   0      0.00%     78.83% # attempts to use FU when none available
system.cpu0.iq.fu_full::SimdShiftAcc                0      0.00%     78.83% # attempts to use FU when none available
system.cpu0.iq.fu_full::SimdSqrt                    0      0.00%     78.83% # attempts to use FU when none available
system.cpu0.iq.fu_full::SimdFloatAdd                0      0.00%     78.83% # attempts to use FU when none available
system.cpu0.iq.fu_full::SimdFloatAlu                0      0.00%     78.83% # attempts to use FU when none available
system.cpu0.iq.fu_full::SimdFloatCmp                0      0.00%     78.83% # attempts to use FU when none available
system.cpu0.iq.fu_full::SimdFloatCvt                0      0.00%     78.83% # attempts to use FU when none available
system.cpu0.iq.fu_full::SimdFloatDiv                0      0.00%     78.83% # attempts to use FU when none available
system.cpu0.iq.fu_full::SimdFloatMisc               0      0.00%     78.83% # attempts to use FU when none available
system.cpu0.iq.fu_full::SimdFloatMult               0      0.00%     78.83% # attempts to use FU when none available
system.cpu0.iq.fu_full::SimdFloatMultAcc            0      0.00%     78.83% # attempts to use FU when none available
system.cpu0.iq.fu_full::SimdFloatSqrt               0      0.00%     78.83% # attempts to use FU when none available
system.cpu0.iq.fu_full::MemRead                  3674     18.70%     97.52% # attempts to use FU when none available
system.cpu0.iq.fu_full::MemWrite                  329      1.67%     99.20% # attempts to use FU when none available
system.cpu0.iq.fu_full::FloatMemRead               82      0.42%     99.61% # attempts to use FU when none available
system.cpu0.iq.fu_full::FloatMemWrite              76      0.39%    100.00% # attempts to use FU when none available
system.cpu0.iq.fu_full::IprAccess                   0      0.00%    100.00% # attempts to use FU when none available
system.cpu0.iq.fu_full::InstPrefetch                0      0.00%    100.00% # attempts to use FU when none available
system.cpu0.iq.FU_type_0::No_OpClass            20310      0.33%      0.33% # Type of FU issued
system.cpu0.iq.FU_type_0::IntAlu              5008931     82.15%     82.48% # Type of FU issued
system.cpu0.iq.FU_type_0::IntMult                1314      0.02%     82.50% # Type of FU issued
system.cpu0.iq.FU_type_0::IntDiv                13564      0.22%     82.73% # Type of FU issued
system.cpu0.iq.FU_type_0::FloatAdd              19043      0.31%     83.04% # Type of FU issued
system.cpu0.iq.FU_type_0::FloatCmp                  0      0.00%     83.04% # Type of FU issued
system.cpu0.iq.FU_type_0::FloatCvt                  0      0.00%     83.04% # Type of FU issued
system.cpu0.iq.FU_type_0::FloatMult                 0      0.00%     83.04% # Type of FU issued
system.cpu0.iq.FU_type_0::FloatMultAcc              0      0.00%     83.04% # Type of FU issued
system.cpu0.iq.FU_type_0::FloatDiv                  0      0.00%     83.04% # Type of FU issued
system.cpu0.iq.FU_type_0::FloatMisc                 0      0.00%     83.04% # Type of FU issued
system.cpu0.iq.FU_type_0::FloatSqrt                 0      0.00%     83.04% # Type of FU issued
system.cpu0.iq.FU_type_0::SimdAdd                   0      0.00%     83.04% # Type of FU issued
system.cpu0.iq.FU_type_0::SimdAddAcc                0      0.00%     83.04% # Type of FU issued
system.cpu0.iq.FU_type_0::SimdAlu                   0      0.00%     83.04% # Type of FU issued
system.cpu0.iq.FU_type_0::SimdCmp                   0      0.00%     83.04% # Type of FU issued
system.cpu0.iq.FU_type_0::SimdCvt                   0      0.00%     83.04% # Type of FU issued
system.cpu0.iq.FU_type_0::SimdMisc                  0      0.00%     83.04% # Type of FU issued
system.cpu0.iq.FU_type_0::SimdMult                  0      0.00%     83.04% # Type of FU issued
system.cpu0.iq.FU_type_0::SimdMultAcc               0      0.00%     83.04% # Type of FU issued
system.cpu0.iq.FU_type_0::SimdShift                 0      0.00%     83.04% # Type of FU issued
system.cpu0.iq.FU_type_0::SimdShiftAcc              0      0.00%     83.04% # Type of FU issued
system.cpu0.iq.FU_type_0::SimdSqrt                  0      0.00%     83.04% # Type of FU issued
system.cpu0.iq.FU_type_0::SimdFloatAdd              0      0.00%     83.04% # Type of FU issued
system.cpu0.iq.FU_type_0::SimdFloatAlu              0      0.00%     83.04% # Type of FU issued
system.cpu0.iq.FU_type_0::SimdFloatCmp              0      0.00%     83.04% # Type of FU issued
system.cpu0.iq.FU_type_0::SimdFloatCvt              0      0.00%     83.04% # Type of FU issued
system.cpu0.iq.FU_type_0::SimdFloatDiv              0      0.00%     83.04% # Type of FU issued
system.cpu0.iq.FU_type_0::SimdFloatMisc             0      0.00%     83.04% # Type of FU issued
system.cpu0.iq.FU_type_0::SimdFloatMult             0      0.00%     83.04% # Type of FU issued
system.cpu0.iq.FU_type_0::SimdFloatMultAcc            0      0.00%     83.04% # Type of FU issued
system.cpu0.iq.FU_type_0::SimdFloatSqrt             0      0.00%     83.04% # Type of FU issued
system.cpu0.iq.FU_type_0::MemRead              958028     15.71%     98.75% # Type of FU issued
system.cpu0.iq.FU_type_0::MemWrite              72939      1.20%     99.95% # Type of FU issued
system.cpu0.iq.FU_type_0::FloatMemRead           2981      0.05%    100.00% # Type of FU issued
system.cpu0.iq.FU_type_0::FloatMemWrite           208      0.00%    100.00% # Type of FU issued
system.cpu0.iq.FU_type_0::IprAccess                 0      0.00%    100.00% # Type of FU issued
system.cpu0.iq.FU_type_0::InstPrefetch              0      0.00%    100.00% # Type of FU issued
system.cpu0.iq.FU_type_0::total               6097318                       # Type of FU issued
system.cpu0.iq.rate                          0.199685                       # Inst issue rate
system.cpu0.iq.fu_busy_cnt                      19651                       # FU busy when requested
system.cpu0.iq.fu_busy_rate                  0.003223                       # FU busy rate (busy events/executed inst)
system.cpu0.iq.int_inst_queue_reads          42672057                       # Number of integer instruction queue reads
system.cpu0.iq.int_inst_queue_writes         13375351                       # Number of integer instruction queue writes
system.cpu0.iq.int_inst_queue_wakeup_accesses      5858509                       # Number of integer instruction queue wakeup accesses
system.cpu0.iq.fp_inst_queue_reads              46503                       # Number of floating instruction queue reads
system.cpu0.iq.fp_inst_queue_writes             40836                       # Number of floating instruction queue writes
system.cpu0.iq.fp_inst_queue_wakeup_accesses        20910                       # Number of floating instruction queue wakeup accesses
system.cpu0.iq.vec_inst_queue_reads                 0                       # Number of vector instruction queue reads
system.cpu0.iq.vec_inst_queue_writes                0                       # Number of vector instruction queue writes
system.cpu0.iq.vec_inst_queue_wakeup_accesses            0                       # Number of vector instruction queue wakeup accesses
system.cpu0.iq.int_alu_accesses               6072776                       # Number of integer alu accesses
system.cpu0.iq.fp_alu_accesses                  23883                       # Number of floating point alu accesses
system.cpu0.iq.vec_alu_accesses                     0                       # Number of vector alu accesses
system.cpu0.iew.lsq.thread0.forwLoads            6847                       # Number of loads that had data forwarded from stores
system.cpu0.iew.lsq.thread0.invAddrLoads            0                       # Number of loads ignored due to an invalid address
system.cpu0.iew.lsq.thread0.squashedLoads       958066                       # Number of loads squashed
system.cpu0.iew.lsq.thread0.ignoredResponses          158                       # Number of memory responses ignored because the instruction is squashed
system.cpu0.iew.lsq.thread0.memOrderViolation            4                       # Number of memory ordering violations
system.cpu0.iew.lsq.thread0.squashedStores        56844                       # Number of stores squashed
system.cpu0.iew.lsq.thread0.invAddrSwpfs            0                       # Number of software prefetches ignored due to an invalid address
system.cpu0.iew.lsq.thread0.blockedLoads            0                       # Number of blocked loads due to partial load-store forwarding
system.cpu0.iew.lsq.thread0.rescheduledLoads           55                       # Number of loads that were rescheduled
system.cpu0.iew.lsq.thread0.cacheBlocked         2285                       # Number of times an access to memory failed due to the cache being blocked
system.cpu0.iew.iewIdleCycles                       0                       # Number of cycles IEW is idle
system.cpu0.iew.iewSquashCycles                 77939                       # Number of cycles IEW is squashing
system.cpu0.iew.iewBlockCycles               24763204                       # Number of cycles IEW is blocking
system.cpu0.iew.iewUnblockCycles               293103                       # Number of cycles IEW is unblocking
system.cpu0.iew.iewDispatchedInsts            8403042                       # Number of instructions dispatched to IQ
system.cpu0.iew.iewDispSquashedInsts             4362                       # Number of squashed instructions skipped by dispatch
system.cpu0.iew.iewDispLoadInsts              1590444                       # Number of dispatched load instructions
system.cpu0.iew.iewDispStoreInsts               96415                       # Number of dispatched store instructions
system.cpu0.iew.iewDispNonSpecInsts              1880                       # Number of dispatched non-speculative instructions
system.cpu0.iew.iewIQFullEvents                 18426                       # Number of times the IQ has become full, causing a stall
system.cpu0.iew.iewLSQFullEvents                49346                       # Number of times the LSQ has become full, causing a stall
system.cpu0.iew.memOrderViolationEvents             4                       # Number of memory order violations
system.cpu0.iew.predictedTakenIncorrect         43279                       # Number of branches that were predicted taken incorrectly
system.cpu0.iew.predictedNotTakenIncorrect        42855                       # Number of branches that were predicted not taken incorrectly
system.cpu0.iew.branchMispredicts               86134                       # Number of branch mispredicts detected at execute
system.cpu0.iew.iewExecutedInsts              5994962                       # Number of executed instructions
system.cpu0.iew.iewExecLoadInsts               920915                       # Number of load instructions executed
system.cpu0.iew.iewExecSquashedInsts           102355                       # Number of squashed instructions skipped in execute
system.cpu0.iew.exec_swp                            0                       # number of swp insts executed
system.cpu0.iew.exec_nop                            0                       # number of nop insts executed
system.cpu0.iew.exec_refs                      989342                       # number of memory reference insts executed
system.cpu0.iew.exec_branches                  734859                       # Number of branches executed
system.cpu0.iew.exec_stores                     68427                       # Number of stores executed
system.cpu0.iew.exec_rate                    0.196333                       # Inst execution rate
system.cpu0.iew.wb_sent                       5898649                       # cumulative count of insts sent to commit
system.cpu0.iew.wb_count                      5879419                       # cumulative count of insts written-back
system.cpu0.iew.wb_producers                  4309586                       # num instructions producing a value
system.cpu0.iew.wb_consumers                  6914265                       # num instructions consuming a value
system.cpu0.iew.wb_rate                      0.192549                       # insts written-back per cycle
system.cpu0.iew.wb_fanout                    0.623289                       # average fanout of values written-back
system.cpu0.commit.commitSquashedInsts        5013742                       # The number of squashed insts skipped by commit
system.cpu0.commit.branchMispredicts            77937                       # The number of times a branch was mispredicted
system.cpu0.commit.committed_per_cycle::samples     29791755                       # Number of insts commited each cycle
system.cpu0.commit.committed_per_cycle::mean     0.113787                       # Number of insts commited each cycle
system.cpu0.commit.committed_per_cycle::stdev     0.629618                       # Number of insts commited each cycle
system.cpu0.commit.committed_per_cycle::underflows            0      0.00%      0.00% # Number of insts commited each cycle
system.cpu0.commit.committed_per_cycle::0     28347870     95.15%     95.15% # Number of insts commited each cycle
system.cpu0.commit.committed_per_cycle::1       656509      2.20%     97.36% # Number of insts commited each cycle
system.cpu0.commit.committed_per_cycle::2       163032      0.55%     97.90% # Number of insts commited each cycle
system.cpu0.commit.committed_per_cycle::3       430268      1.44%     99.35% # Number of insts commited each cycle
system.cpu0.commit.committed_per_cycle::4        71887      0.24%     99.59% # Number of insts commited each cycle
system.cpu0.commit.committed_per_cycle::5        43049      0.14%     99.73% # Number of insts commited each cycle
system.cpu0.commit.committed_per_cycle::6         7062      0.02%     99.76% # Number of insts commited each cycle
system.cpu0.commit.committed_per_cycle::7         5263      0.02%     99.78% # Number of insts commited each cycle
system.cpu0.commit.committed_per_cycle::8        66815      0.22%    100.00% # Number of insts commited each cycle
system.cpu0.commit.committed_per_cycle::overflows            0      0.00%    100.00% # Number of insts commited each cycle
system.cpu0.commit.committed_per_cycle::min_value            0                       # Number of insts commited each cycle
system.cpu0.commit.committed_per_cycle::max_value            8                       # Number of insts commited each cycle
system.cpu0.commit.committed_per_cycle::total     29791755                       # Number of insts commited each cycle
system.cpu0.commit.committedInsts             1697114                       # Number of instructions committed
system.cpu0.commit.committedOps               3389903                       # Number of ops (including micro ops) committed
system.cpu0.commit.swp_count                        0                       # Number of s/w prefetches committed
system.cpu0.commit.refs                        671950                       # Number of memory references committed
system.cpu0.commit.loads                       632379                       # Number of loads committed
system.cpu0.commit.membars                          0                       # Number of memory barriers committed
system.cpu0.commit.branches                    604199                       # Number of branches committed
system.cpu0.commit.vec_insts                        0                       # Number of committed Vector instructions.
system.cpu0.commit.fp_insts                     15768                       # Number of committed floating point instructions.
system.cpu0.commit.int_insts                  3373874                       # Number of committed integer instructions.
system.cpu0.commit.function_calls                6975                       # Number of function calls committed.
system.cpu0.commit.op_class_0::No_OpClass         4821      0.14%      0.14% # Class of committed instruction
system.cpu0.commit.op_class_0::IntAlu         2687614     79.28%     79.43% # Class of committed instruction
system.cpu0.commit.op_class_0::IntMult            279      0.01%     79.43% # Class of committed instruction
system.cpu0.commit.op_class_0::IntDiv           11751      0.35%     79.78% # Class of committed instruction
system.cpu0.commit.op_class_0::FloatAdd         13488      0.40%     80.18% # Class of committed instruction
system.cpu0.commit.op_class_0::FloatCmp             0      0.00%     80.18% # Class of committed instruction
system.cpu0.commit.op_class_0::FloatCvt             0      0.00%     80.18% # Class of committed instruction
system.cpu0.commit.op_class_0::FloatMult            0      0.00%     80.18% # Class of committed instruction
system.cpu0.commit.op_class_0::FloatMultAcc            0      0.00%     80.18% # Class of committed instruction
system.cpu0.commit.op_class_0::FloatDiv             0      0.00%     80.18% # Class of committed instruction
system.cpu0.commit.op_class_0::FloatMisc            0      0.00%     80.18% # Class of committed instruction
system.cpu0.commit.op_class_0::FloatSqrt            0      0.00%     80.18% # Class of committed instruction
system.cpu0.commit.op_class_0::SimdAdd              0      0.00%     80.18% # Class of committed instruction
system.cpu0.commit.op_class_0::SimdAddAcc            0      0.00%     80.18% # Class of committed instruction
system.cpu0.commit.op_class_0::SimdAlu              0      0.00%     80.18% # Class of committed instruction
system.cpu0.commit.op_class_0::SimdCmp              0      0.00%     80.18% # Class of committed instruction
system.cpu0.commit.op_class_0::SimdCvt              0      0.00%     80.18% # Class of committed instruction
system.cpu0.commit.op_class_0::SimdMisc             0      0.00%     80.18% # Class of committed instruction
system.cpu0.commit.op_class_0::SimdMult             0      0.00%     80.18% # Class of committed instruction
system.cpu0.commit.op_class_0::SimdMultAcc            0      0.00%     80.18% # Class of committed instruction
system.cpu0.commit.op_class_0::SimdShift            0      0.00%     80.18% # Class of committed instruction
system.cpu0.commit.op_class_0::SimdShiftAcc            0      0.00%     80.18% # Class of committed instruction
system.cpu0.commit.op_class_0::SimdSqrt             0      0.00%     80.18% # Class of committed instruction
system.cpu0.commit.op_class_0::SimdFloatAdd            0      0.00%     80.18% # Class of committed instruction
system.cpu0.commit.op_class_0::SimdFloatAlu            0      0.00%     80.18% # Class of committed instruction
system.cpu0.commit.op_class_0::SimdFloatCmp            0      0.00%     80.18% # Class of committed instruction
system.cpu0.commit.op_class_0::SimdFloatCvt            0      0.00%     80.18% # Class of committed instruction
system.cpu0.commit.op_class_0::SimdFloatDiv            0      0.00%     80.18% # Class of committed instruction
system.cpu0.commit.op_class_0::SimdFloatMisc            0      0.00%     80.18% # Class of committed instruction
system.cpu0.commit.op_class_0::SimdFloatMult            0      0.00%     80.18% # Class of committed instruction
system.cpu0.commit.op_class_0::SimdFloatMultAcc            0      0.00%     80.18% # Class of committed instruction
system.cpu0.commit.op_class_0::SimdFloatSqrt            0      0.00%     80.18% # Class of committed instruction
system.cpu0.commit.op_class_0::MemRead         630099     18.59%     98.77% # Class of committed instruction
system.cpu0.commit.op_class_0::MemWrite         39571      1.17%     99.93% # Class of committed instruction
system.cpu0.commit.op_class_0::FloatMemRead         2280      0.07%    100.00% # Class of committed instruction
system.cpu0.commit.op_class_0::FloatMemWrite            0      0.00%    100.00% # Class of committed instruction
system.cpu0.commit.op_class_0::IprAccess            0      0.00%    100.00% # Class of committed instruction
system.cpu0.commit.op_class_0::InstPrefetch            0      0.00%    100.00% # Class of committed instruction
system.cpu0.commit.op_class_0::total          3389903                       # Class of committed instruction
system.cpu0.commit.bw_lim_events                66815                       # number cycles where commit BW limit reached
system.cpu0.rob.rob_reads                    38128585                       # The number of ROB reads
system.cpu0.rob.rob_writes                   17514289                       # The number of ROB writes
system.cpu0.timesIdled                            384                       # Number of times that the entire CPU went into an idle state and unscheduled itself
system.cpu0.idleCycles                          37714                       # Total number of cycles that the CPU has spent unscheduled due to idling
system.cpu0.committedInsts                    1697114                       # Number of Instructions Simulated
system.cpu0.committedOps                      3389903                       # Number of Ops (including micro ops) Simulated
system.cpu0.cpi                             17.992125                       # CPI: Cycles Per Instruction
system.cpu0.cpi_total                       17.992125                       # CPI: Total CPI of All Threads
system.cpu0.ipc                              0.055580                       # IPC: Instructions Per Cycle
system.cpu0.ipc_total                        0.055580                       # IPC: Total IPC of All Threads
system.cpu0.int_regfile_reads                 6091994                       # number of integer regfile reads
system.cpu0.int_regfile_writes                5085238                       # number of integer regfile writes
system.cpu0.fp_regfile_reads                    37103                       # number of floating regfile reads
system.cpu0.fp_regfile_writes                   18480                       # number of floating regfile writes
system.cpu0.cc_regfile_reads                  3908031                       # number of cc regfile reads
system.cpu0.cc_regfile_writes                 1650764                       # number of cc regfile writes
system.cpu0.misc_regfile_reads                3162034                       # number of misc regfile reads
system.cpu0.dcache.tags.pwrStateResidencyTicks::UNDEFINED  15267344125                       # Cumulative time (in ticks) in various power states
system.cpu0.dcache.tags.replacements           327292                       # number of replacements
system.cpu0.dcache.tags.tagsinuse                1024                       # Cycle average of tags in use
system.cpu0.dcache.tags.total_refs             383294                       # Total number of references to valid blocks.
system.cpu0.dcache.tags.sampled_refs           327292                       # Sample count of references to valid blocks.
system.cpu0.dcache.tags.avg_refs             1.171107                       # Average number of references to valid blocks.
system.cpu0.dcache.tags.warmup_cycle                0                       # Cycle when the warmup percentage was hit.
system.cpu0.dcache.tags.occ_blocks::cpu0.data         1024                       # Average occupied blocks per requestor
system.cpu0.dcache.tags.occ_percent::cpu0.data            1                       # Average percentage of cache occupancy
system.cpu0.dcache.tags.occ_percent::total            1                       # Average percentage of cache occupancy
system.cpu0.dcache.tags.occ_task_id_blocks::1024         1024                       # Occupied blocks per task id
system.cpu0.dcache.tags.age_task_id_blocks_1024::0          173                       # Occupied blocks per task id
system.cpu0.dcache.tags.age_task_id_blocks_1024::1          850                       # Occupied blocks per task id
system.cpu0.dcache.tags.age_task_id_blocks_1024::2            1                       # Occupied blocks per task id
system.cpu0.dcache.tags.occ_task_id_percent::1024            1                       # Percentage of cache occupancy per task id
system.cpu0.dcache.tags.tag_accesses          4118440                       # Number of tag accesses
system.cpu0.dcache.tags.data_accesses         4118440                       # Number of data accesses
system.cpu0.dcache.pwrStateResidencyTicks::UNDEFINED  15267344125                       # Cumulative time (in ticks) in various power states
system.cpu0.dcache.ReadReq_hits::cpu0.data       344141                       # number of ReadReq hits
system.cpu0.dcache.ReadReq_hits::total         344141                       # number of ReadReq hits
system.cpu0.dcache.WriteReq_hits::cpu0.data        38293                       # number of WriteReq hits
system.cpu0.dcache.WriteReq_hits::total         38293                       # number of WriteReq hits
system.cpu0.dcache.demand_hits::cpu0.data       382434                       # number of demand (read+write) hits
system.cpu0.dcache.demand_hits::total          382434                       # number of demand (read+write) hits
system.cpu0.dcache.overall_hits::cpu0.data       382434                       # number of overall hits
system.cpu0.dcache.overall_hits::total         382434                       # number of overall hits
system.cpu0.dcache.ReadReq_misses::cpu0.data       564075                       # number of ReadReq misses
system.cpu0.dcache.ReadReq_misses::total       564075                       # number of ReadReq misses
system.cpu0.dcache.WriteReq_misses::cpu0.data         1278                       # number of WriteReq misses
system.cpu0.dcache.WriteReq_misses::total         1278                       # number of WriteReq misses
system.cpu0.dcache.demand_misses::cpu0.data       565353                       # number of demand (read+write) misses
system.cpu0.dcache.demand_misses::total        565353                       # number of demand (read+write) misses
system.cpu0.dcache.overall_misses::cpu0.data       565353                       # number of overall misses
system.cpu0.dcache.overall_misses::total       565353                       # number of overall misses
system.cpu0.dcache.ReadReq_miss_latency::cpu0.data  33797750000                       # number of ReadReq miss cycles
system.cpu0.dcache.ReadReq_miss_latency::total  33797750000                       # number of ReadReq miss cycles
system.cpu0.dcache.WriteReq_miss_latency::cpu0.data     52675997                       # number of WriteReq miss cycles
system.cpu0.dcache.WriteReq_miss_latency::total     52675997                       # number of WriteReq miss cycles
system.cpu0.dcache.demand_miss_latency::cpu0.data  33850425997                       # number of demand (read+write) miss cycles
system.cpu0.dcache.demand_miss_latency::total  33850425997                       # number of demand (read+write) miss cycles
system.cpu0.dcache.overall_miss_latency::cpu0.data  33850425997                       # number of overall miss cycles
system.cpu0.dcache.overall_miss_latency::total  33850425997                       # number of overall miss cycles
system.cpu0.dcache.ReadReq_accesses::cpu0.data       908216                       # number of ReadReq accesses(hits+misses)
system.cpu0.dcache.ReadReq_accesses::total       908216                       # number of ReadReq accesses(hits+misses)
system.cpu0.dcache.WriteReq_accesses::cpu0.data        39571                       # number of WriteReq accesses(hits+misses)
system.cpu0.dcache.WriteReq_accesses::total        39571                       # number of WriteReq accesses(hits+misses)
system.cpu0.dcache.demand_accesses::cpu0.data       947787                       # number of demand (read+write) accesses
system.cpu0.dcache.demand_accesses::total       947787                       # number of demand (read+write) accesses
system.cpu0.dcache.overall_accesses::cpu0.data       947787                       # number of overall (read+write) accesses
system.cpu0.dcache.overall_accesses::total       947787                       # number of overall (read+write) accesses
system.cpu0.dcache.ReadReq_miss_rate::cpu0.data     0.621080                       # miss rate for ReadReq accesses
system.cpu0.dcache.ReadReq_miss_rate::total     0.621080                       # miss rate for ReadReq accesses
system.cpu0.dcache.WriteReq_miss_rate::cpu0.data     0.032296                       # miss rate for WriteReq accesses
system.cpu0.dcache.WriteReq_miss_rate::total     0.032296                       # miss rate for WriteReq accesses
system.cpu0.dcache.demand_miss_rate::cpu0.data     0.596498                       # miss rate for demand accesses
system.cpu0.dcache.demand_miss_rate::total     0.596498                       # miss rate for demand accesses
system.cpu0.dcache.overall_miss_rate::cpu0.data     0.596498                       # miss rate for overall accesses
system.cpu0.dcache.overall_miss_rate::total     0.596498                       # miss rate for overall accesses
system.cpu0.dcache.ReadReq_avg_miss_latency::cpu0.data 59917.120950                       # average ReadReq miss latency
system.cpu0.dcache.ReadReq_avg_miss_latency::total 59917.120950                       # average ReadReq miss latency
system.cpu0.dcache.WriteReq_avg_miss_latency::cpu0.data 41217.525039                       # average WriteReq miss latency
system.cpu0.dcache.WriteReq_avg_miss_latency::total 41217.525039                       # average WriteReq miss latency
system.cpu0.dcache.demand_avg_miss_latency::cpu0.data 59874.849867                       # average overall miss latency
system.cpu0.dcache.demand_avg_miss_latency::total 59874.849867                       # average overall miss latency
[...]
system.l2.ReadSharedReq_hits::cpu0.data        150209                       # number of ReadSharedReq hits
system.l2.ReadSharedReq_hits::total            150209                       # number of ReadSharedReq hits
system.l2.demand_hits::cpu0.data               151100                       # number of demand (read+write) hits
system.l2.demand_hits::total                   151100                       # number of demand (read+write) hits
system.l2.overall_hits::cpu0.data              151100                       # number of overall hits
system.l2.overall_hits::total                  151100                       # number of overall hits
system.l2.ReadExReq_misses::cpu0.data             378                       # number of ReadExReq misses
system.l2.ReadExReq_misses::total                 378                       # number of ReadExReq misses
system.l2.ReadSharedReq_misses::cpu0.data       175814                       # number of ReadSharedReq misses
system.l2.ReadSharedReq_misses::total          175814                       # number of ReadSharedReq misses
system.l2.demand_misses::cpu0.data             176192                       # number of demand (read+write) misses
system.l2.demand_misses::total                 176192                       # number of demand (read+write) misses
system.l2.overall_misses::cpu0.data            176192                       # number of overall misses
system.l2.overall_misses::total                176192                       # number of overall misses
system.l2.ReadExReq_miss_latency::cpu0.data     39183000                       # number of ReadExReq miss cycles
system.l2.ReadExReq_miss_latency::total      39183000                       # number of ReadExReq miss cycles
system.l2.ReadSharedReq_miss_latency::cpu0.data  16833616000                       # number of ReadSharedReq miss cycles
system.l2.ReadSharedReq_miss_latency::total  16833616000                       # number of ReadSharedReq miss cycles
system.l2.demand_miss_latency::cpu0.data  16872799000                       # number of demand (read+write) miss cycles
system.l2.demand_miss_latency::total      16872799000                       # number of demand (read+write) miss cycles
system.l2.overall_miss_latency::cpu0.data  16872799000                       # number of overall miss cycles
system.l2.overall_miss_latency::total     16872799000                       # number of overall miss cycles
system.l2.WritebackDirty_accesses::writebacks         3747                       # number of WritebackDirty accesses(hits+misses)
system.l2.WritebackDirty_accesses::total         3747                       # number of WritebackDirty accesses(hits+misses)
system.l2.ReadExReq_accesses::cpu0.data          1269                       # number of ReadExReq accesses(hits+misses)
system.l2.ReadExReq_accesses::total              1269                       # number of ReadExReq accesses(hits+misses)
system.l2.ReadSharedReq_accesses::cpu0.data       326023                       # number of ReadSharedReq accesses(hits+misses)
system.l2.ReadSharedReq_accesses::total        326023                       # number of ReadSharedReq accesses(hits+misses)
system.l2.demand_accesses::cpu0.data           327292                       # number of demand (read+write) accesses
system.l2.demand_accesses::total               327292                       # number of demand (read+write) accesses
system.l2.overall_accesses::cpu0.data          327292                       # number of overall (read+write) accesses
system.l2.overall_accesses::total              327292                       # number of overall (read+write) accesses
system.l2.ReadExReq_miss_rate::cpu0.data     0.297872                       # miss rate for ReadExReq accesses
system.l2.ReadExReq_miss_rate::total         0.297872                       # miss rate for ReadExReq accesses
system.l2.ReadSharedReq_miss_rate::cpu0.data     0.539269                       # miss rate for ReadSharedReq accesses
system.l2.ReadSharedReq_miss_rate::total     0.539269                       # miss rate for ReadSharedReq accesses
system.l2.demand_miss_rate::cpu0.data        0.538333                       # miss rate for demand accesses
system.l2.demand_miss_rate::total            0.538333                       # miss rate for demand accesses
system.l2.overall_miss_rate::cpu0.data       0.538333                       # miss rate for overall accesses
system.l2.overall_miss_rate::total           0.538333                       # miss rate for overall accesses
system.l2.ReadExReq_avg_miss_latency::cpu0.data 103658.730159                       # average ReadExReq miss latency
system.l2.ReadExReq_avg_miss_latency::total 103658.730159                       # average ReadExReq miss latency
system.l2.ReadSharedReq_avg_miss_latency::cpu0.data 95746.732342                       # average ReadSharedReq miss latency
system.l2.ReadSharedReq_avg_miss_latency::total 95746.732342                       # average ReadSharedReq miss latency
system.l2.demand_avg_miss_latency::cpu0.data 95763.706638                       # average overall miss latency
system.l2.demand_avg_miss_latency::total 95763.706638                       # average overall miss latency
system.l2.overall_avg_miss_latency::cpu0.data 95763.706638                       # average overall miss latency
system.l2.overall_avg_miss_latency::total 95763.706638                       # average overall miss latency
system.l2.blocked_cycles::no_mshrs                  0                       # number of cycles access was blocked
system.l2.blocked_cycles::no_targets                0                       # number of cycles access was blocked
system.l2.blocked::no_mshrs                         0                       # number of cycles access was blocked
system.l2.blocked::no_targets                       0                       # number of cycles access was blocked
system.l2.avg_blocked_cycles::no_mshrs            nan                       # average number of cycles each access was blocked
system.l2.avg_blocked_cycles::no_targets          nan                       # average number of cycles each access was blocked
system.l2.writebacks::writebacks                  479                       # number of writebacks
system.l2.writebacks::total                       479                       # number of writebacks
system.l2.ReadExReq_mshr_misses::cpu0.data          378                       # number of ReadExReq MSHR misses
system.l2.ReadExReq_mshr_misses::total            378                       # number of ReadExReq MSHR misses
system.l2.ReadSharedReq_mshr_misses::cpu0.data       175814                       # number of ReadSharedReq MSHR misses
system.l2.ReadSharedReq_mshr_misses::total       175814                       # number of ReadSharedReq MSHR misses
system.l2.demand_mshr_misses::cpu0.data        176192                       # number of demand (read+write) MSHR misses
system.l2.demand_mshr_misses::total            176192                       # number of demand (read+write) MSHR misses
system.l2.overall_mshr_misses::cpu0.data       176192                       # number of overall MSHR misses
system.l2.overall_mshr_misses::total           176192                       # number of overall MSHR misses
system.l2.ReadExReq_mshr_miss_latency::cpu0.data     35403000                       # number of ReadExReq MSHR miss cycles
system.l2.ReadExReq_mshr_miss_latency::total     35403000                       # number of ReadExReq MSHR miss cycles
system.l2.ReadSharedReq_mshr_miss_latency::cpu0.data  15075476000                       # number of ReadSharedReq MSHR miss cycles
system.l2.ReadSharedReq_mshr_miss_latency::total  15075476000                       # number of ReadSharedReq MSHR miss cycles
system.l2.demand_mshr_miss_latency::cpu0.data  15110879000                       # number of demand (read+write) MSHR miss cycles
system.l2.demand_mshr_miss_latency::total  15110879000                       # number of demand (read+write) MSHR miss cycles
system.l2.overall_mshr_miss_latency::cpu0.data  15110879000                       # number of overall MSHR miss cycles
system.l2.overall_mshr_miss_latency::total  15110879000                       # number of overall MSHR miss cycles
system.l2.ReadExReq_mshr_miss_rate::cpu0.data     0.297872                       # mshr miss rate for ReadExReq accesses
system.l2.ReadExReq_mshr_miss_rate::total     0.297872                       # mshr miss rate for ReadExReq accesses
system.l2.ReadSharedReq_mshr_miss_rate::cpu0.data     0.539269                       # mshr miss rate for ReadSharedReq accesses
system.l2.ReadSharedReq_mshr_miss_rate::total     0.539269                       # mshr miss rate for ReadSharedReq accesses
system.l2.demand_mshr_miss_rate::cpu0.data     0.538333                       # mshr miss rate for demand accesses
system.l2.demand_mshr_miss_rate::total       0.538333                       # mshr miss rate for demand accesses
system.l2.overall_mshr_miss_rate::cpu0.data     0.538333                       # mshr miss rate for overall accesses
system.l2.overall_mshr_miss_rate::total      0.538333                       # mshr miss rate for overall accesses
system.l2.ReadExReq_avg_mshr_miss_latency::cpu0.data 93658.730159                       # average ReadExReq mshr miss latency
system.l2.ReadExReq_avg_mshr_miss_latency::total 93658.730159                       # average ReadExReq mshr miss latency
system.l2.ReadSharedReq_avg_mshr_miss_latency::cpu0.data 85746.732342                       # average ReadSharedReq mshr miss latency
system.l2.ReadSharedReq_avg_mshr_miss_latency::total 85746.732342                       # average ReadSharedReq mshr miss latency
system.l2.demand_avg_mshr_miss_latency::cpu0.data 85763.706638                       # average overall mshr miss latency
system.l2.demand_avg_mshr_miss_latency::total 85763.706638                       # average overall mshr miss latency
system.l2.overall_avg_mshr_miss_latency::cpu0.data 85763.706638                       # average overall mshr miss latency
system.l2.overall_avg_mshr_miss_latency::total 85763.706638                       # average overall mshr miss latency
system.membus.snoop_filter.tot_requests        352382                       # Total number of requests made to the snoop filter.
system.membus.snoop_filter.hit_single_requests       176193                       # Number of requests hitting in the snoop filter with a single holder of the requested data.
system.membus.snoop_filter.hit_multi_requests            0                       # Number of requests hitting in the snoop filter with multiple (>1) holders of the requested data.
system.membus.snoop_filter.tot_snoops               0                       # Total number of snoops made to the snoop filter.
system.membus.snoop_filter.hit_single_snoops            0                       # Number of snoops hitting in the snoop filter with a single holder of the requested data.
system.membus.snoop_filter.hit_multi_snoops            0                       # Number of snoops hitting in the snoop filter with multiple (>1) holders of the requested data.
system.membus.pwrStateResidencyTicks::UNDEFINED  15267344125                       # Cumulative time (in ticks) in various power states
system.membus.trans_dist::ReadResp             175814                       # Transaction distribution
system.membus.trans_dist::WritebackDirty          479                       # Transaction distribution
system.membus.trans_dist::CleanEvict           175712                       # Transaction distribution
system.membus.trans_dist::ReadExReq               378                       # Transaction distribution
system.membus.trans_dist::ReadExResp              378                       # Transaction distribution
system.membus.trans_dist::ReadSharedReq        175813                       # Transaction distribution
system.membus.pkt_count_system.l2.mem_side::system.mem_ctrls.port       528574                       # Packet count per connected master and slave (bytes)
system.membus.pkt_count_system.l2.mem_side::total       528574                       # Packet count per connected master and slave (bytes)
system.membus.pkt_count::total                 528574                       # Packet count per connected master and slave (bytes)
system.membus.pkt_size_system.l2.mem_side::system.mem_ctrls.port     11306944                       # Cumulative packet size per connected master and slave (bytes)
system.membus.pkt_size_system.l2.mem_side::total     11306944                       # Cumulative packet size per connected master and slave (bytes)
system.membus.pkt_size::total                11306944                       # Cumulative packet size per connected master and slave (bytes)
system.membus.snoops                                0                       # Total snoops (count)
system.membus.snoopTraffic                          0                       # Total snoop traffic (bytes)
system.membus.snoop_fanout::samples            176191                       # Request fanout histogram
system.membus.snoop_fanout::mean                    0                       # Request fanout histogram
system.membus.snoop_fanout::stdev                   0                       # Request fanout histogram
system.membus.snoop_fanout::underflows              0      0.00%      0.00% # Request fanout histogram
system.membus.snoop_fanout::0                  176191    100.00%    100.00% # Request fanout histogram
system.membus.snoop_fanout::1                       0      0.00%    100.00% # Request fanout histogram
system.membus.snoop_fanout::overflows               0      0.00%    100.00% # Request fanout histogram
system.membus.snoop_fanout::min_value               0                       # Request fanout histogram
system.membus.snoop_fanout::max_value               0                       # Request fanout histogram
system.membus.snoop_fanout::total              176191                       # Request fanout histogram
system.membus.reqLayer8.occupancy           414462000                       # Layer occupancy (ticks)
system.membus.reqLayer8.utilization               2.7                       # Layer utilization (%)
system.membus.respLayer1.occupancy          955854000                       # Layer occupancy (ticks)
system.membus.respLayer1.utilization              6.3                       # Layer utilization (%)
system.tol2bus.snoop_filter.tot_requests       654584                       # Total number of requests made to the snoop filter.
system.tol2bus.snoop_filter.hit_single_requests       327291                       # Number of requests hitting in the snoop filter with a single holder of the requested data.
system.tol2bus.snoop_filter.hit_multi_requests          813                       # Number of requests hitting in the snoop filter with multiple (>1) holders of the requested data.
system.tol2bus.snoop_filter.tot_snoops              1                       # Total number of snoops made to the snoop filter.
system.tol2bus.snoop_filter.hit_single_snoops            1                       # Number of snoops hitting in the snoop filter with a single holder of the requested data.
system.tol2bus.snoop_filter.hit_multi_snoops            0                       # Number of snoops hitting in the snoop filter with multiple (>1) holders of the requested data.
system.tol2bus.pwrStateResidencyTicks::UNDEFINED  15267344125                       # Cumulative time (in ticks) in various power states
system.tol2bus.trans_dist::ReadResp            326023                       # Transaction distribution
system.tol2bus.trans_dist::WritebackDirty         4226                       # Transaction distribution
system.tol2bus.trans_dist::CleanEvict          499258                       # Transaction distribution
system.tol2bus.trans_dist::ReadExReq             1269                       # Transaction distribution
system.tol2bus.trans_dist::ReadExResp            1269                       # Transaction distribution
system.tol2bus.trans_dist::ReadSharedReq       326023                       # Transaction distribution
system.tol2bus.pkt_count_system.cpu0.dcache.mem_side::system.l2.cpu_side       981876                       # Packet count per connected master and slave (bytes)
system.tol2bus.pkt_count::total                981876                       # Packet count per connected master and slave (bytes)
system.tol2bus.pkt_size_system.cpu0.dcache.mem_side::system.l2.cpu_side     21186496                       # Cumulative packet size per connected master and slave (bytes)
system.tol2bus.pkt_size::total               21186496                       # Cumulative packet size per connected master and slave (bytes)
system.tol2bus.snoops                          176192                       # Total snoops (count)
system.tol2bus.snoopTraffic                     30656                       # Total snoop traffic (bytes)
system.tol2bus.snoop_fanout::samples           503484                       # Request fanout histogram
system.tol2bus.snoop_fanout::mean            0.001615                       # Request fanout histogram
system.tol2bus.snoop_fanout::stdev           0.040152                       # Request fanout histogram
system.tol2bus.snoop_fanout::underflows             0      0.00%      0.00% # Request fanout histogram
system.tol2bus.snoop_fanout::0                 502671     99.84%     99.84% # Request fanout histogram
system.tol2bus.snoop_fanout::1                    813      0.16%    100.00% # Request fanout histogram
system.tol2bus.snoop_fanout::2                      0      0.00%    100.00% # Request fanout histogram
system.tol2bus.snoop_fanout::3                      0      0.00%    100.00% # Request fanout histogram
system.tol2bus.snoop_fanout::4                      0      0.00%    100.00% # Request fanout histogram
system.tol2bus.snoop_fanout::5                      0      0.00%    100.00% # Request fanout histogram
system.tol2bus.snoop_fanout::6                      0      0.00%    100.00% # Request fanout histogram
system.tol2bus.snoop_fanout::7                      0      0.00%    100.00% # Request fanout histogram
system.tol2bus.snoop_fanout::8                      0      0.00%    100.00% # Request fanout histogram
system.tol2bus.snoop_fanout::9                      0      0.00%    100.00% # Request fanout histogram
system.tol2bus.snoop_fanout::10                     0      0.00%    100.00% # Request fanout histogram
system.tol2bus.snoop_fanout::11                     0      0.00%    100.00% # Request fanout histogram
system.tol2bus.snoop_fanout::12                     0      0.00%    100.00% # Request fanout histogram
system.tol2bus.snoop_fanout::13                     0      0.00%    100.00% # Request fanout histogram
system.tol2bus.snoop_fanout::14                     0      0.00%    100.00% # Request fanout histogram
system.tol2bus.snoop_fanout::15                     0      0.00%    100.00% # Request fanout histogram
system.tol2bus.snoop_fanout::16                     0      0.00%    100.00% # Request fanout histogram
system.tol2bus.snoop_fanout::overflows              0      0.00%    100.00% # Request fanout histogram
system.tol2bus.snoop_fanout::min_value              0                       # Request fanout histogram
system.tol2bus.snoop_fanout::max_value              1                       # Request fanout histogram
system.tol2bus.snoop_fanout::total             503484                       # Request fanout histogram
system.tol2bus.reqLayer0.occupancy          331039000                       # Layer occupancy (ticks)
system.tol2bus.reqLayer0.utilization              2.2                       # Layer utilization (%)
system.tol2bus.respLayer1.occupancy         490938000                       # Layer occupancy (ticks)
system.tol2bus.respLayer1.utilization             3.2                       # Layer utilization (%)

---------- End Simulation Statistics   ----------
