
---------- Begin Simulation Statistics ----------
sim_seconds                                  0.015267                       # Number of seconds simulated
sim_ticks                                 15267344125                       # Number of ticks simulated
final_tick                                45802032375                       # Number of ticks from beginning of simulation (restored from checkpoints and never reset)
sim_freq                                 1000000000000                       # Frequency of simulated ticks
host_inst_rate                                 375405                       # Simulator instruction rate (inst/s)
host_op_rate                                   694706                       # Simulator op (including micro ops) rate (op/s)
host_tick_rate                               50800830                       # Simulator tick rate (ticks/s)
host_mem_usage                                2301156                       # Number of bytes of host memory used
host_seconds                                   300.53                       # Real time elapsed on the host
sim_insts                                   112821820                       # Number of instructions simulated
sim_ops                                     208782433                       # Number of ops (including micro ops) simulated
system.voltage_domain.voltage                       1                       # Voltage in Volts
system.clk_domain.clock                          1000                       # Clock period in ticks
system.mem_ctrls.pwrStateResidencyTicks::UNDEFINED  15267344125                       # Cumulative time (in ticks) in various power states
system.mem_ctrls.bytes_read::cpu0.inst            384                       # Number of bytes read from this memory
system.mem_ctrls.bytes_read::cpu0.data         222784                       # Number of bytes read from this memory
system.mem_ctrls.bytes_read::total             223168                       # Number of bytes read from this memory
system.mem_ctrls.bytes_inst_read::cpu0.inst          384                       # Number of instructions bytes read from this memory
system.mem_ctrls.bytes_inst_read::total           384                       # Number of instructions bytes read from this memory
system.mem_ctrls.num_reads::cpu0.inst               6                       # Number of read requests responded to by this memory
system.mem_ctrls.num_reads::cpu0.data            3481                       # Number of read requests responded to by this memory
system.mem_ctrls.num_reads::total                3487                       # Number of read requests responded to by this memory
system.mem_ctrls.bw_read::cpu0.inst             25152                       # Total read bandwidth from this memory (bytes/s)
system.mem_ctrls.bw_read::cpu0.data          14592191                       # Total read bandwidth from this memory (bytes/s)
system.mem_ctrls.bw_read::total              14617343                       # Total read bandwidth from this memory (bytes/s)
system.mem_ctrls.bw_inst_read::cpu0.inst        25152                       # Instruction read bandwidth from this memory (bytes/s)
system.mem_ctrls.bw_inst_read::total            25152                       # Instruction read bandwidth from this memory (bytes/s)
system.mem_ctrls.bw_total::cpu0.inst            25152                       # Total bandwidth to/from this memory (bytes/s)
system.mem_ctrls.bw_total::cpu0.data         14592191                       # Total bandwidth to/from this memory (bytes/s)
system.mem_ctrls.bw_total::total             14617343                       # Total bandwidth to/from this memory (bytes/s)
system.mem_ctrls.readReqs                        3487                       # Number of read requests accepted
system.mem_ctrls.writeReqs                          0                       # Number of write requests accepted
system.mem_ctrls.readBursts                      3487                       # Number of DRAM read bursts, including those serviced by the write queue
system.mem_ctrls.writeBursts                        0                       # Number of DRAM write bursts, including those merged in the write queue
system.mem_ctrls.bytesReadDRAM                 223168                       # Total number of bytes read from DRAM
system.mem_ctrls.bytesReadWrQ                       0                       # Total number of bytes read from write queue
system.mem_ctrls.bytesWritten                       0                       # Total number of bytes written to DRAM
system.mem_ctrls.bytesReadSys                  223168                       # Total read bytes from the system interface side
system.mem_ctrls.bytesWrittenSys                    0                       # Total written bytes from the system interface side
system.mem_ctrls.servicedByWrQ                      0                       # Number of DRAM read bursts serviced by the write queue
system.mem_ctrls.mergedWrBursts                     0                       # Number of DRAM write bursts merged with an existing one
system.mem_ctrls.neitherReadNorWriteReqs            0                       # Number of requests that are neither read nor write
system.mem_ctrls.perBankRdBursts::0               384                       # Per bank write bursts
system.mem_ctrls.perBankRdBursts::1               384                       # Per bank write bursts
system.mem_ctrls.perBankRdBursts::2               243                       # Per bank write bursts
system.mem_ctrls.perBankRdBursts::3                97                       # Per bank write bursts
system.mem_ctrls.perBankRdBursts::4                61                       # Per bank write bursts
system.mem_ctrls.perBankRdBursts::5               128                       # Per bank write bursts
system.mem_ctrls.perBankRdBursts::6               129                       # Per bank write bursts
system.mem_ctrls.perBankRdBursts::7               129                       # Per bank write bursts
system.mem_ctrls.perBankRdBursts::8               128                       # Per bank write bursts
system.mem_ctrls.perBankRdBursts::9               191                       # Per bank write bursts
system.mem_ctrls.perBankRdBursts::10              256                       # Per bank write bursts
system.mem_ctrls.perBankRdBursts::11              256                       # Per bank write bursts
system.mem_ctrls.perBankRdBursts::12              256                       # Per bank write bursts
system.mem_ctrls.perBankRdBursts::13              256                       # Per bank write bursts
system.mem_ctrls.perBankRdBursts::14              256                       # Per bank write bursts
system.mem_ctrls.perBankRdBursts::15              333                       # Per bank write bursts
system.mem_ctrls.perBankWrBursts::0                 0                       # Per bank write bursts
system.mem_ctrls.perBankWrBursts::1                 0                       # Per bank write bursts
system.mem_ctrls.perBankWrBursts::2                 0                       # Per bank write bursts
system.mem_ctrls.perBankWrBursts::3                 0                       # Per bank write bursts
system.mem_ctrls.perBankWrBursts::4                 0                       # Per bank write bursts
system.mem_ctrls.perBankWrBursts::5                 0                       # Per bank write bursts
system.mem_ctrls.perBankWrBursts::6                 0                       # Per bank write bursts
system.mem_ctrls.perBankWrBursts::7                 0                       # Per bank write bursts
system.mem_ctrls.perBankWrBursts::8                 0                       # Per bank write bursts
system.mem_ctrls.perBankWrBursts::9                 0                       # Per bank write bursts
system.mem_ctrls.perBankWrBursts::10                0                       # Per bank write bursts
system.mem_ctrls.perBankWrBursts::11                0                       # Per bank write bursts
system.mem_ctrls.perBankWrBursts::12                0                       # Per bank write bursts
system.mem_ctrls.perBankWrBursts::13                0                       # Per bank write bursts
system.mem_ctrls.perBankWrBursts::14                0                       # Per bank write bursts
system.mem_ctrls.perBankWrBursts::15                0                       # Per bank write bursts
system.mem_ctrls.numRdRetry                         0                       # Number of times read queue was full causing retry
system.mem_ctrls.numWrRetry                         0                       # Number of times write queue was full causing retry
system.mem_ctrls.totGap                   15270118000                       # Total gap between requests
system.mem_ctrls.readPktSize::0                     0                       # Read request sizes (log2)
system.mem_ctrls.readPktSize::1                     0                       # Read request sizes (log2)
system.mem_ctrls.readPktSize::2                     0                       # Read request sizes (log2)
system.mem_ctrls.readPktSize::3                     0                       # Read request sizes (log2)
system.mem_ctrls.readPktSize::4                     0                       # Read request sizes (log2)
system.mem_ctrls.readPktSize::5                     0                       # Read request sizes (log2)
system.mem_ctrls.readPktSize::6                  3487                       # Read request sizes (log2)
system.mem_ctrls.writePktSize::0                    0                       # Write request sizes (log2)
system.mem_ctrls.writePktSize::1                    0                       # Write request sizes (log2)
system.mem_ctrls.writePktSize::2                    0                       # Write request sizes (log2)
system.mem_ctrls.writePktSize::3                    0                       # Write request sizes (log2)
system.mem_ctrls.writePktSize::4                    0                       # Write request sizes (log2)
system.mem_ctrls.writePktSize::5                    0                       # Write request sizes (log2)
system.mem_ctrls.writePktSize::6                    0                       # Write request sizes (log2)
system.mem_ctrls.rdQLenPdf::0                    3487                       # What read queue length does an incoming req see
system.mem_ctrls.rdQLenPdf::1                       0                       # What read queue length does an incoming req see
system.mem_ctrls.rdQLenPdf::2                       0                       # What read queue length does an incoming req see
system.mem_ctrls.rdQLenPdf::3                       0                       # What read queue length does an incoming req see
system.mem_ctrls.rdQLenPdf::4                       0                       # What read queue length does an incoming req see
system.mem_ctrls.rdQLenPdf::5                       0                       # What read queue length does an incoming req see
system.mem_ctrls.rdQLenPdf::6                       0                       # What read queue length does an incoming req see
system.mem_ctrls.rdQLenPdf::7                       0                       # What read queue length does an incoming req see
system.mem_ctrls.rdQLenPdf::8                       0                       # What read queue length does an incoming req see
system.mem_ctrls.rdQLenPdf::9                       0                       # What read queue length does an incoming req see
system.mem_ctrls.rdQLenPdf::10                      0                       # What read queue length does an incoming req see
system.mem_ctrls.rdQLenPdf::11                      0                       # What read queue length does an incoming req see
system.mem_ctrls.rdQLenPdf::12                      0                       # What read queue length does an incoming req see
system.mem_ctrls.rdQLenPdf::13                      0                       # What read queue length does an incoming req see
system.mem_ctrls.rdQLenPdf::14                      0                       # What read queue length does an incoming req see
system.mem_ctrls.rdQLenPdf::15                      0                       # What read queue length does an incoming req see
system.mem_ctrls.rdQLenPdf::16                      0                       # What read queue length does an incoming req see
system.mem_ctrls.rdQLenPdf::17                      0                       # What read queue length does an incoming req see
system.mem_ctrls.rdQLenPdf::18                      0                       # What read queue length does an incoming req see
system.mem_ctrls.rdQLenPdf::19                      0                       # What read queue length does an incoming req see
system.mem_ctrls.rdQLenPdf::20                      0                       # What read queue length does an incoming req see
system.mem_ctrls.rdQLenPdf::21                      0                       # What read queue length does an incoming req see
system.mem_ctrls.rdQLenPdf::22                      0                       # What read queue length does an incoming req see
system.mem_ctrls.rdQLenPdf::23                      0                       # What read queue length does an incoming req see
system.mem_ctrls.rdQLenPdf::24                      0                       # What read queue length does an incoming req see
system.mem_ctrls.rdQLenPdf::25                      0                       # What read queue length does an incoming req see
system.mem_ctrls.rdQLenPdf::26                      0                       # What read queue length does an incoming req see
system.mem_ctrls.rdQLenPdf::27                      0                       # What read queue length does an incoming req see
system.mem_ctrls.rdQLenPdf::28                      0                       # What read queue length does an incoming req see
system.mem_ctrls.rdQLenPdf::29                      0                       # What read queue length does an incoming req see
system.mem_ctrls.rdQLenPdf::30                      0                       # What read queue length does an incoming req see
system.mem_ctrls.rdQLenPdf::31                      0                       # What read queue length does an incoming req see
system.mem_ctrls.wrQLenPdf::0                       0                       # What write queue length does an incoming req see
system.mem_ctrls.wrQLenPdf::1                       0                       # What write queue length does an incoming req see
system.mem_ctrls.wrQLenPdf::2                       0                       # What write queue length does an incoming req see
system.mem_ctrls.wrQLenPdf::3                       0                       # What write queue length does an incoming req see
system.mem_ctrls.wrQLenPdf::4                       0                       # What write queue length does an incoming req see
system.mem_ctrls.wrQLenPdf::5                       0                       # What write queue length does an incoming req see
system.mem_ctrls.wrQLenPdf::6                       0                       # What write queue length does an incoming req see
system.mem_ctrls.wrQLenPdf::7                       0                       # What write queue length does an incoming req see
system.mem_ctrls.wrQLenPdf::8                       0                       # What write queue length does an incoming req see
system.mem_ctrls.wrQLenPdf::9                       0                       # What write queue length does an incoming req see
system.mem_ctrls.wrQLenPdf::10                      0                       # What write queue length does an incoming req see
system.mem_ctrls.wrQLenPdf::11                      0                       # What write queue length does an incoming req see
system.mem_ctrls.wrQLenPdf::12                      0                       # What write queue length does an incoming req see
system.mem_ctrls.wrQLenPdf::13                      0                       # What write queue length does an incoming req see
system.mem_ctrls.wrQLenPdf::14                      0                       # What write queue length does an incoming req see
system.mem_ctrls.wrQLenPdf::15                      0                       # What write queue length does an incoming req see
system.mem_ctrls.wrQLenPdf::16                      0                       # What write queue length does an incoming req see
system.mem_ctrls.wrQLenPdf::17                      0                       # What write queue length does an incoming req see
system.mem_ctrls.wrQLenPdf::18                      0                       # What write queue length does an incoming req see
system.mem_ctrls.wrQLenPdf::19                      0                       # What write queue length does an incoming req see
system.mem_ctrls.wrQLenPdf::20                      0                       # What write queue length does an incoming req see
system.mem_ctrls.wrQLenPdf::21                      0                       # What write queue length does an incoming req see
system.mem_ctrls.wrQLenPdf::22                      0                       # What write queue length does an incoming req see
system.mem_ctrls.wrQLenPdf::23                      0                       # What write queue length does an incoming req see
system.mem_ctrls.wrQLenPdf::24                      0                       # What write queue length does an incoming req see
system.mem_ctrls.wrQLenPdf::25                      0                       # What write queue length does an incoming req see
system.mem_ctrls.wrQLenPdf::26                      0                       # What write queue length does an incoming req see
system.mem_ctrls.wrQLenPdf::27                      0                       # What write queue length does an incoming req see
system.mem_ctrls.wrQLenPdf::28                      0                       # What write queue length does an incoming req see
system.mem_ctrls.wrQLenPdf::29                      0                       # What write queue length does an incoming req see
system.mem_ctrls.wrQLenPdf::30                      0                       # What write queue length does an incoming req see
system.mem_ctrls.wrQLenPdf::31                      0                       # What write queue length does an incoming req see
system.mem_ctrls.wrQLenPdf::32                      0                       # What write queue length does an incoming req see
system.mem_ctrls.wrQLenPdf::33                      0                       # What write queue length does an incoming req see
system.mem_ctrls.wrQLenPdf::34                      0                       # What write queue length does an incoming req see
system.mem_ctrls.wrQLenPdf::35                      0                       # What write queue length does an incoming req see
system.mem_ctrls.wrQLenPdf::36                      0                       # What write queue length does an incoming req see
system.mem_ctrls.wrQLenPdf::37                      0                       # What write queue length does an incoming req see
system.mem_ctrls.wrQLenPdf::38                      0                       # What write queue length does an incoming req see
system.mem_ctrls.wrQLenPdf::39                      0                       # What write queue length does an incoming req see
system.mem_ctrls.wrQLenPdf::40                      0                       # What write queue length does an incoming req see
system.mem_ctrls.wrQLenPdf::41                      0                       # What write queue length does an incoming req see
system.mem_ctrls.wrQLenPdf::42                      0                       # What write queue length does an incoming req see
system.mem_ctrls.wrQLenPdf::43                      0                       # What write queue length does an incoming req see
system.mem_ctrls.wrQLenPdf::44                      0                       # What write queue length does an incoming req see
system.mem_ctrls.wrQLenPdf::45                      0                       # What write queue length does an incoming req see
system.mem_ctrls.wrQLenPdf::46                      0                       # What write queue length does an incoming req see
system.mem_ctrls.wrQLenPdf::47                      0                       # What write queue length does an incoming req see
system.mem_ctrls.wrQLenPdf::48                      0                       # What write queue length does an incoming req see
system.mem_ctrls.wrQLenPdf::49                      0                       # What write queue length does an incoming req see
system.mem_ctrls.wrQLenPdf::50                      0                       # What write queue length does an incoming req see
system.mem_ctrls.wrQLenPdf::51                      0                       # What write queue length does an incoming req see
system.mem_ctrls.wrQLenPdf::52                      0                       # What write queue length does an incoming req see
system.mem_ctrls.wrQLenPdf::53                      0                       # What write queue length does an incoming req see
system.mem_ctrls.wrQLenPdf::54                      0                       # What write queue length does an incoming req see
system.mem_ctrls.wrQLenPdf::55                      0                       # What write queue length does an incoming req see
system.mem_ctrls.wrQLenPdf::56                      0                       # What write queue length does an incoming req see
system.mem_ctrls.wrQLenPdf::57                      0                       # What write queue length does an incoming req see
system.mem_ctrls.wrQLenPdf::58                      0                       # What write queue length does an incoming req see
system.mem_ctrls.wrQLenPdf::59                      0                       # What write queue length does an incoming req see
system.mem_ctrls.wrQLenPdf::60                      0                       # What write queue length does an incoming req see
system.mem_ctrls.wrQLenPdf::61                      0                       # What write queue length does an incoming req see
system.mem_ctrls.wrQLenPdf::62                      0                       # What write queue length does an incoming req see
system.mem_ctrls.wrQLenPdf::63                      0                       # What write queue length does an incoming req see
system.mem_ctrls.bytesPerActivate::samples         3423                       # Bytes accessed per row activation
system.mem_ctrls.bytesPerActivate::mean     65.196611                       # Bytes accessed per row activation
system.mem_ctrls.bytesPerActivate::gmean    64.834826                       # Bytes accessed per row activation
system.mem_ctrls.bytesPerActivate::stdev     8.670248                       # Bytes accessed per row activation
system.mem_ctrls.bytesPerActivate::64-79         3359     98.13%     98.13% # Bytes accessed per row activation
system.mem_ctrls.bytesPerActivate::128-143           64      1.87%    100.00% # Bytes accessed per row activation
system.mem_ctrls.bytesPerActivate::total         3423                       # Bytes accessed per row activation
system.mem_ctrls.totQLat                    262730750                       # Total ticks spent queuing
system.mem_ctrls.totMemAccLat               328112000                       # Total ticks spent from burst creation until serviced by the DRAM
system.mem_ctrls.totBusLat                   17435000                       # Total ticks spent in databus transfers
system.mem_ctrls.avgQLat                     75345.78                       # Average queueing delay per DRAM burst
system.mem_ctrls.avgBusLat                    5000.00                       # Average bus latency per DRAM burst
system.mem_ctrls.avgMemAccLat                94095.78                       # Average memory access latency per DRAM burst
system.mem_ctrls.avgRdBW                        14.62                       # Average DRAM read bandwidth in MiByte/s
system.mem_ctrls.avgWrBW                         0.00                       # Average achieved write bandwidth in MiByte/s
system.mem_ctrls.avgRdBWSys                     14.62                       # Average system read bandwidth in MiByte/s
system.mem_ctrls.avgWrBWSys                      0.00                       # Average system write bandwidth in MiByte/s
system.mem_ctrls.peakBW                      12800.00                       # Theoretical peak bandwidth in MiByte/s
system.mem_ctrls.busUtil                         0.11                       # Data bus utilization in percentage
system.mem_ctrls.busUtilRead                     0.11                       # Data bus utilization in percentage for reads
system.mem_ctrls.busUtilWrite                    0.00                       # Data bus utilization in percentage for writes
system.mem_ctrls.avgRdQLen                       1.00                       # Average read queue length when enqueuing
system.mem_ctrls.avgWrQLen                       0.00                       # Average write queue length when enqueuing
system.mem_ctrls.readRowHits                       64                       # Number of row buffer hits during reads
system.mem_ctrls.writeRowHits                       0                       # Number of row buffer hits during writes
system.mem_ctrls.readRowHitRate                  1.84                       # Row buffer hit rate for reads
system.mem_ctrls.writeRowHitRate                  nan                       # Row buffer hit rate for writes
system.mem_ctrls.avgGap                    4379156.29                       # Average gap between requests
system.mem_ctrls.pageHitRate                     1.84                       # Row buffer hit rate, read and write combined
system.mem_ctrls_0.actEnergy                 10881360                       # Energy for activate commands per rank (pJ)
system.mem_ctrls_0.preEnergy                  5783580                       # Energy for precharge commands per rank (pJ)
system.mem_ctrls_0.readEnergy                11102700                       # Energy for read commands per rank (pJ)
system.mem_ctrls_0.writeEnergy                      0                       # Energy for write commands per rank (pJ)
system.mem_ctrls_0.refreshEnergy         957609120.000000                       # Energy for refresh commands per rank (pJ)
system.mem_ctrls_0.actBackEnergy            202227450                       # Energy for active background per rank (pJ)
system.mem_ctrls_0.preBackEnergy             38985600                       # Energy for precharge background per rank (pJ)
system.mem_ctrls_0.actPowerDownEnergy      2541254370                       # Energy for active power-down per rank (pJ)
system.mem_ctrls_0.prePowerDownEnergy      1730597760                       # Energy for precharge power-down per rank (pJ)
system.mem_ctrls_0.selfRefreshEnergy       1228548780                       # Energy for self refresh per rank (pJ)
system.mem_ctrls_0.totalEnergy             6727467420                       # Total energy per rank (pJ)
system.mem_ctrls_0.averagePower            440.644251                       # Core power per rank (mW)
system.mem_ctrls_0.totalIdleTime          14720978750                       # Total Idle time Per DRAM Rank
system.mem_ctrls_0.memoryStateTime::IDLE     61434000                       # Time in different power states
system.mem_ctrls_0.memoryStateTime::REF     406400000                       # Time in different power states
system.mem_ctrls_0.memoryStateTime::SREF   4641575250                       # Time in different power states
system.mem_ctrls_0.memoryStateTime::PRE_PDN   4506754500                       # Time in different power states
system.mem_ctrls_0.memoryStateTime::ACT      78161500                       # Time in different power states
system.mem_ctrls_0.memoryStateTime::ACT_PDN   5573018875                       # Time in different power states
system.mem_ctrls_1.actEnergy                 13558860                       # Energy for activate commands per rank (pJ)
system.mem_ctrls_1.preEnergy                  7206705                       # Energy for precharge commands per rank (pJ)
system.mem_ctrls_1.readEnergy                13794480                       # Energy for read commands per rank (pJ)
system.mem_ctrls_1.writeEnergy                      0                       # Energy for write commands per rank (pJ)
system.mem_ctrls_1.refreshEnergy         961296960.000000                       # Energy for refresh commands per rank (pJ)
system.mem_ctrls_1.actBackEnergy            209433390                       # Energy for active background per rank (pJ)
system.mem_ctrls_1.preBackEnergy             29762400                       # Energy for precharge background per rank (pJ)
system.mem_ctrls_1.actPowerDownEnergy      2708459880                       # Energy for active power-down per rank (pJ)
system.mem_ctrls_1.prePowerDownEnergy      1847939520                       # Energy for precharge power-down per rank (pJ)
system.mem_ctrls_1.selfRefreshEnergy       1022791020                       # Energy for self refresh per rank (pJ)
system.mem_ctrls_1.totalEnergy             6815512695                       # Total energy per rank (pJ)
system.mem_ctrls_1.averagePower            446.411153                       # Core power per rank (mW)
system.mem_ctrls_1.totalIdleTime          11733003250                       # Total Idle time Per DRAM Rank
system.mem_ctrls_1.memoryStateTime::IDLE     39900000                       # Time in different power states
system.mem_ctrls_1.memoryStateTime::REF     407588000                       # Time in different power states
system.mem_ctrls_1.memoryStateTime::SREF   3975783625                       # Time in different power states
system.mem_ctrls_1.memoryStateTime::PRE_PDN   4812496000                       # Time in different power states
system.mem_ctrls_1.memoryStateTime::ACT      91830000                       # Time in different power states
system.mem_ctrls_1.memoryStateTime::ACT_PDN   5939746500                       # Time in different power states
system.pwrStateResidencyTicks::UNDEFINED  15267344125                       # Cumulative time (in ticks) in various power states
system.cpu0.branchPred.lookups               13222428                       # Number of BP lookups
system.cpu0.branchPred.condPredicted         13222428                       # Number of conditional branches predicted
system.cpu0.branchPred.condIncorrect          1059182                       # Number of conditional branches incorrect
system.cpu0.branchPred.BTBLookups            10906667                       # Number of BTB lookups
system.cpu0.branchPred.BTBHits                      0                       # Number of BTB hits
system.cpu0.branchPred.BTBCorrect                   0                       # Number of correct BTB predictions (this stat may not work properly.
system.cpu0.branchPred.BTBHitPct             0.000000                       # BTB Hit Percentage
system.cpu0.branchPred.usedRAS                1006975                       # Number of times the RAS was used to get a target.
system.cpu0.branchPred.RASInCorrect            213519                       # Number of incorrect RAS predictions.
system.cpu0.branchPred.indirectLookups       10906667                       # Number of indirect predictor lookups.
system.cpu0.branchPred.indirectHits           3688717                       # Number of indirect target hits.
system.cpu0.branchPred.indirectMisses         7217950                       # Number of indirect misses.
system.cpu0.branchPredindirectMispredicted       758687                       # Number of mispredicted indirect branches.
system.cpu_voltage_domain.voltage                   1                       # Voltage in Volts
system.cpu_clk_domain.clock                       500                       # Clock period in ticks
system.cpu0.dtb.walker.pwrStateResidencyTicks::UNDEFINED  15267344125                       # Cumulative time (in ticks) in various power states
system.cpu0.dtb.rdAccesses                   10174914                       # TLB accesses on read requests
system.cpu0.dtb.wrAccesses                    7668961                       # TLB accesses on write requests
system.cpu0.dtb.rdMisses                       130351                       # TLB misses on read requests
system.cpu0.dtb.wrMisses                        41766                       # TLB misses on write requests
system.cpu0.apic_clk_domain.clock                8000                       # Clock period in ticks
system.cpu0.interrupts.pwrStateResidencyTicks::UNDEFINED  15267344125                       # Cumulative time (in ticks) in various power states
system.cpu0.itb.walker.pwrStateResidencyTicks::UNDEFINED  15267344125                       # Cumulative time (in ticks) in various power states
system.cpu0.itb.rdAccesses                          0                       # TLB accesses on read requests
system.cpu0.itb.wrAccesses                    9050050                       # TLB accesses on write requests
system.cpu0.itb.rdMisses                            0                       # TLB misses on read requests
system.cpu0.itb.wrMisses                        13475                       # TLB misses on write requests
system.cpu0.workload.numSyscalls                   24                       # Number of system calls
system.cpu0.pwrStateResidencyTicks::ON    15267344125                       # Cumulative time (in ticks) in various power states
system.cpu0.numCycles                        30534688                       # number of cpu cycles simulated
system.cpu0.numWorkItemsStarted                     0                       # number of work items this cpu started
system.cpu0.numWorkItemsCompleted                   0                       # number of work items this cpu completed
system.cpu0.fetch.icacheStallCycles           9763718                       # Number of cycles fetch is stalled on an Icache miss
system.cpu0.fetch.Insts                      59913069                       # Number of instructions fetch has processed
system.cpu0.fetch.Branches                   13222428                       # Number of branches that fetch encountered
system.cpu0.fetch.predictedBranches           4695692                       # Number of branches that fetch has predicted taken
system.cpu0.fetch.Cycles                     19633281                       # Number of cycles fetch has run and was not squashing or blocked
system.cpu0.fetch.SquashCycles                2134006                       # Number of cycles fetch has spent squashing
system.cpu0.fetch.MiscStallCycles                7701                       # Number of cycles fetch has spent waiting on interrupts, or bad addresses, or out of MSHRs
system.cpu0.fetch.PendingTrapStallCycles        62734                       # Number of stall cycles due to pending traps
system.cpu0.fetch.CacheLines                  9036576                       # Number of cache lines fetched
system.cpu0.fetch.IcacheSquashes               261811                       # Number of outstanding Icache misses that were squashed
system.cpu0.fetch.rateDist::samples          30534437                       # Number of instructions fetched each cycle (Total)
system.cpu0.fetch.rateDist::mean             3.755218                       # Number of instructions fetched each cycle (Total)
system.cpu0.fetch.rateDist::stdev            3.573881                       # Number of instructions fetched each cycle (Total)
system.cpu0.fetch.rateDist::underflows              0      0.00%      0.00% # Number of instructions fetched each cycle (Total)
system.cpu0.fetch.rateDist::0                12240036     40.09%     40.09% # Number of instructions fetched each cycle (Total)
system.cpu0.fetch.rateDist::1                  861024      2.82%     42.91% # Number of instructions fetched each cycle (Total)
system.cpu0.fetch.rateDist::2                 1258074      4.12%     47.03% # Number of instructions fetched each cycle (Total)
system.cpu0.fetch.rateDist::3                 1422387      4.66%     51.68% # Number of instructions fetched each cycle (Total)
system.cpu0.fetch.rateDist::4                 1156954      3.79%     55.47% # Number of instructions fetched each cycle (Total)
system.cpu0.fetch.rateDist::5                 1140733      3.74%     59.21% # Number of instructions fetched each cycle (Total)
system.cpu0.fetch.rateDist::6                 1022346      3.35%     62.56% # Number of instructions fetched each cycle (Total)
system.cpu0.fetch.rateDist::7                  909474      2.98%     65.54% # Number of instructions fetched each cycle (Total)
system.cpu0.fetch.rateDist::8                10523409     34.46%    100.00% # Number of instructions fetched each cycle (Total)
system.cpu0.fetch.rateDist::overflows               0      0.00%    100.00% # Number of instructions fetched each cycle (Total)
system.cpu0.fetch.rateDist::min_value               0                       # Number of instructions fetched each cycle (Total)
system.cpu0.fetch.rateDist::max_value               8                       # Number of instructions fetched each cycle (Total)
system.cpu0.fetch.rateDist::total            30534437                       # Number of instructions fetched each cycle (Total)
system.cpu0.fetch.branchRate                 0.433030                       # Number of branch fetches per cycle
system.cpu0.fetch.rate                       1.962131                       # Number of inst fetches per cycle
system.cpu0.decode.IdleCycles                 8686281                       # Number of cycles decode is idle
system.cpu0.decode.BlockedCycles              4075924                       # Number of cycles decode is blocked
system.cpu0.decode.RunCycles                 15755535                       # Number of cycles decode is running
system.cpu0.decode.UnblockCycles               949694                       # Number of cycles decode is unblocking
system.cpu0.decode.SquashCycles               1067003                       # Number of cycles decode is squashing
system.cpu0.decode.DecodedInsts             109237297                       # Number of instructions handled by decode
system.cpu0.rename.SquashCycles               1067003                       # Number of cycles rename is squashing
system.cpu0.rename.IdleCycles                 9443368                       # Number of cycles rename is idle
system.cpu0.rename.BlockCycles                3189828                       # Number of cycles rename is blocking
system.cpu0.rename.serializeStallCycles         13317                       # count of cycles rename stalled for serializing inst
system.cpu0.rename.RunCycles                 15884549                       # Number of cycles rename is running
system.cpu0.rename.UnblockCycles               936372                       # Number of cycles rename is unblocking
system.cpu0.rename.RenamedInsts             104235034                       # Number of instructions processed by rename
system.cpu0.rename.ROBFullEvents                  174                       # Number of times rename has blocked due to ROB full
system.cpu0.rename.IQFullEvents                 67057                       # Number of times rename has blocked due to IQ full
system.cpu0.rename.LQFullEvents                   127                       # Number of times rename has blocked due to LQ full
system.cpu0.rename.SQFullEvents                812432                       # Number of times rename has blocked due to SQ full
system.cpu0.rename.RenamedOperands          110750414                       # Number of destination operands rename has renamed
system.cpu0.rename.RenameLookups            262425583                       # Number of register rename lookups that rename has made
system.cpu0.rename.int_rename_lookups       156831515                       # Number of integer rename lookups
system.cpu0.rename.fp_rename_lookups          3215980                       # Number of floating rename lookups
system.cpu0.rename.CommittedMaps             69883037                       # Number of HB maps that are committed
system.cpu0.rename.UndoneMaps                40867387                       # Number of HB maps that are undone due to squashing
system.cpu0.rename.serializingInsts              1017                       # count of serializing insts renamed
system.cpu0.rename.tempSerializingInsts          1330                       # count of temporary serializing insts renamed
system.cpu0.rename.skidInsts                   964537                       # count of insts added to the skid buffer
system.cpu0.memDep0.insertedLoads            12064103                       # Number of loads inserted to the mem dependence unit.
system.cpu0.memDep0.insertedStores            9060669                       # Number of stores inserted to the mem dependence unit.
system.cpu0.memDep0.conflictingLoads           519614                       # Number of conflicting loads.
system.cpu0.memDep0.conflictingStores          217245                       # Number of conflicting stores.
system.cpu0.iq.iqInstsAdded                  94159344                       # Number of instructions added to the IQ (excludes non-spec)
system.cpu0.iq.iqNonSpecInstsAdded              56258                       # Number of non-speculative instructions added to the IQ
system.cpu0.iq.iqInstsIssued                 84159990                       # Number of instructions issued
system.cpu0.iq.iqSquashedInstsIssued           452635                       # Number of squashed instructions issued
system.cpu0.iq.iqSquashedInstsExamined       28689199                       # Number of squashed instructions iterated over during squash; mainly for profiling
system.cpu0.iq.iqSquashedOperandsExamined     41995447                       # Number of squashed operands that are examined and possibly removed from graph
system.cpu0.iq.iqSquashedNonSpecRemoved         56234                       # Number of squashed non-spec instructions that were removed
system.cpu0.iq.issued_per_cycle::samples     30534437                       # Number of insts issued each cycle
system.cpu0.iq.issued_per_cycle::mean        2.756232                       # Number of insts issued each cycle
system.cpu0.iq.issued_per_cycle::stdev       2.512384                       # Number of insts issued each cycle
system.cpu0.iq.issued_per_cycle::underflows            0      0.00%      0.00% # Number of insts issued each cycle
system.cpu0.iq.issued_per_cycle::0            9462385     30.99%     30.99% # Number of insts issued each cycle
system.cpu0.iq.issued_per_cycle::1            2930878      9.60%     40.59% # Number of insts issued each cycle
system.cpu0.iq.issued_per_cycle::2            3138424     10.28%     50.87% # Number of insts issued each cycle
system.cpu0.iq.issued_per_cycle::3            3162470     10.36%     61.22% # Number of insts issued each cycle
system.cpu0.iq.issued_per_cycle::4            3218224     10.54%     71.76% # Number of insts issued each cycle
system.cpu0.iq.issued_per_cycle::5            2828694      9.26%     81.03% # Number of insts issued each cycle
system.cpu0.iq.issued_per_cycle::6            3122627     10.23%     91.25% # Number of insts issued each cycle
system.cpu0.iq.issued_per_cycle::7            1653154      5.41%     96.67% # Number of insts issued each cycle
system.cpu0.iq.issued_per_cycle::8            1017581      3.33%    100.00% # Number of insts issued each cycle
system.cpu0.iq.issued_per_cycle::overflows            0      0.00%    100.00% # Number of insts issued each cycle
system.cpu0.iq.issued_per_cycle::min_value            0                       # Number of insts issued each cycle
system.cpu0.iq.issued_per_cycle::max_value            8                       # Number of insts issued each cycle
system.cpu0.iq.issued_per_cycle::total       30534437                       # Number of insts issued each cycle
system.cpu0.iq.fu_full::No_OpClass                  0      0.00%      0.00% # attempts to use FU when none available
system.cpu0.iq.fu_full::IntAlu                 807330     72.52%     72.52% # attempts to use FU when none available
system.cpu0.iq.fu_full::IntMult                     0      0.00%     72.52% # attempts to use FU when none available
system.cpu0.iq.fu_full::IntDiv                      0      0.00%     72.52% # attempts to use FU when none available
system.cpu0.iq.fu_full::FloatAdd                14928      1.34%     73.86% # attempts to use FU when none available
system.cpu0.iq.fu_full::FloatCmp                    0      0.00%     73.86% # attempts to use FU when none available
system.cpu0.iq.fu_full::FloatCvt                    0      0.00%     73.86% # attempts to use FU when none available
system.cpu0.iq.fu_full::FloatMult                   0      0.00%     73.86% # attempts to use FU when none available
system.cpu0.iq.fu_full::FloatMultAcc                0      0.00%     73.86% # attempts to use FU when none available
system.cpu0.iq.fu_full::FloatDiv                    0      0.00%     73.86% # attempts to use FU when none available
system.cpu0.iq.fu_full::FloatMisc                   0      0.00%     73.86% # attempts to use FU when none available
system.cpu0.iq.fu_full::FloatSqrt                   0      0.00%     73.86% # attempts to use FU when none available
system.cpu0.iq.fu_full::SimdAdd                     0      0.00%     73.86% # attempts to use FU when none available
system.cpu0.iq.fu_full::SimdAddAcc                  0      0.00%     73.86% # attempts to use FU when none available
system.cpu0.iq.fu_full::SimdAlu                     0      0.00%     73.86% # attempts to use FU when none available
system.cpu0.iq.fu_full::SimdCmp                     0      0.00%     73.86% # attempts to use FU when none available
system.cpu0.iq.fu_full::SimdCvt                     0      0.00%     73.86% # attempts to use FU when none available
system.cpu0.iq.fu_full::SimdMisc                    0      0.00%     73.86% # attempts to use FU when none available
system.cpu0.iq.fu_full::SimdMult                    0      0.00%     73.86% # attempts to use FU when none available
system.cpu0.iq.fu_full::SimdMultAcc                 0      0.00%     73.86% # attempts to use FU when none available
system.cpu0.iq.fu_full::SimdShift                   0      0.00%     73.86% # attempts to use FU when none available
system.cpu0.iq.fu_full::SimdShiftAcc                0      0.00%     73.86% # attempts to use FU when none available
system.cpu0.iq.fu_full::SimdSqrt                    0      0.00%     73.86% # attempts to use FU when none available
system.cpu0.iq.fu_full::SimdFloatAdd                0      0.00%     73.86% # attempts to use FU when none available
system.cpu0.iq.fu_full::SimdFloatAlu                0      0.00%     73.86% # attempts to use FU when none available
system.cpu0.iq.fu_full::SimdFloatCmp                0      0.00%     73.86% # attempts to use FU when none available
system.cpu0.iq.fu_full::SimdFloatCvt                0      0.00%     73.86% # attempts to use FU when none available
system.cpu0.iq.fu_full::SimdFloatDiv                0      0.00%     73.86% # attempts to use FU when none available
system.cpu0.iq.fu_full::SimdFloatMisc               0      0.00%     73.86% # attempts to use FU when none available
system.cpu0.iq.fu_full::SimdFloatMult               0      0.00%     73.86% # attempts to use FU when none available
system.cpu0.iq.fu_full::SimdFloatMultAcc            0      0.00%     73.86% # attempts to use FU when none available
system.cpu0.iq.fu_full::SimdFloatSqrt               0      0.00%     73.86% # attempts to use FU when none available
system.cpu0.iq.fu_full::MemRead                110258      9.90%     83.76% # attempts to use FU when none available
system.cpu0.iq.fu_full::MemWrite                88417      7.94%     91.70% # attempts to use FU when none available
system.cpu0.iq.fu_full::FloatMemRead              681      0.06%     91.76% # attempts to use FU when none available
system.cpu0.iq.fu_full::FloatMemWrite           91710      8.24%    100.00% # attempts to use FU when none available
system.cpu0.iq.fu_full::IprAccess                   0      0.00%    100.00% # attempts to use FU when none available
system.cpu0.iq.fu_full::InstPrefetch                0      0.00%    100.00% # attempts to use FU when none available
system.cpu0.iq.FU_type_0::No_OpClass           511363      0.61%      0.61% # Type of FU issued
system.cpu0.iq.FU_type_0::IntAlu             63600280     75.57%     76.18% # Type of FU issued
system.cpu0.iq.FU_type_0::IntMult               56741      0.07%     76.25% # Type of FU issued
system.cpu0.iq.FU_type_0::IntDiv                89791      0.11%     76.35% # Type of FU issued
system.cpu0.iq.FU_type_0::FloatAdd            1191143      1.42%     77.77% # Type of FU issued
system.cpu0.iq.FU_type_0::FloatCmp                  0      0.00%     77.77% # Type of FU issued
system.cpu0.iq.FU_type_0::FloatCvt                  0      0.00%     77.77% # Type of FU issued
system.cpu0.iq.FU_type_0::FloatMult                 0      0.00%     77.77% # Type of FU issued
system.cpu0.iq.FU_type_0::FloatMultAcc              0      0.00%     77.77% # Type of FU issued
system.cpu0.iq.FU_type_0::FloatDiv                  0      0.00%     77.77% # Type of FU issued
system.cpu0.iq.FU_type_0::FloatMisc                 0      0.00%     77.77% # Type of FU issued
system.cpu0.iq.FU_type_0::FloatSqrt                 0      0.00%     77.77% # Type of FU issued
system.cpu0.iq.FU_type_0::SimdAdd                   0      0.00%     77.77% # Type of FU issued
system.cpu0.iq.FU_type_0::SimdAddAcc                0      0.00%     77.77% # Type of FU issued
system.cpu0.iq.FU_type_0::SimdAlu                   0      0.00%     77.77% # Type of FU issued
system.cpu0.iq.FU_type_0::SimdCmp                   0      0.00%     77.77% # Type of FU issued
system.cpu0.iq.FU_type_0::SimdCvt                   0      0.00%     77.77% # Type of FU issued
system.cpu0.iq.FU_type_0::SimdMisc                  0      0.00%     77.77% # Type of FU issued
system.cpu0.iq.FU_type_0::SimdMult                  0      0.00%     77.77% # Type of FU issued
system.cpu0.iq.FU_type_0::SimdMultAcc               0      0.00%     77.77% # Type of FU issued
system.cpu0.iq.FU_type_0::SimdShift                 0      0.00%     77.77% # Type of FU issued
system.cpu0.iq.FU_type_0::SimdShiftAcc              0      0.00%     77.77% # Type of FU issued
system.cpu0.iq.FU_type_0::SimdSqrt                  0      0.00%     77.77% # Type of FU issued
system.cpu0.iq.FU_type_0::SimdFloatAdd              0      0.00%     77.77% # Type of FU issued
system.cpu0.iq.FU_type_0::SimdFloatAlu              0      0.00%     77.77% # Type of FU issued
system.cpu0.iq.FU_type_0::SimdFloatCmp              0      0.00%     77.77% # Type of FU issued
system.cpu0.iq.FU_type_0::SimdFloatCvt              0      0.00%     77.77% # Type of FU issued
system.cpu0.iq.FU_type_0::SimdFloatDiv              0      0.00%     77.77% # Type of FU issued
system.cpu0.iq.FU_type_0::SimdFloatMisc             0      0.00%     77.77% # Type of FU issued
system.cpu0.iq.FU_type_0::SimdFloatMult             0      0.00%     77.77% # Type of FU issued
system.cpu0.iq.FU_type_0::SimdFloatMultAcc            0      0.00%     77.77% # Type of FU issued
system.cpu0.iq.FU_type_0::SimdFloatSqrt             0      0.00%     77.77% # Type of FU issued
system.cpu0.iq.FU_type_0::MemRead            10316456     12.26%     90.03% # Type of FU issued
system.cpu0.iq.FU_type_0::MemWrite            7707257      9.16%     99.18% # Type of FU issued
system.cpu0.iq.FU_type_0::FloatMemRead         393995      0.47%     99.65% # Type of FU issued
system.cpu0.iq.FU_type_0::FloatMemWrite        292964      0.35%    100.00% # Type of FU issued
system.cpu0.iq.FU_type_0::IprAccess                 0      0.00%    100.00% # Type of FU issued
system.cpu0.iq.FU_type_0::InstPrefetch              0      0.00%    100.00% # Type of FU issued
system.cpu0.iq.FU_type_0::total              84159990                       # Type of FU issued
system.cpu0.iq.rate                          2.756209                       # Inst issue rate
system.cpu0.iq.fu_busy_cnt                    1113324                       # FU busy when requested
system.cpu0.iq.fu_busy_rate                  0.013229                       # FU busy rate (busy events/executed inst)
system.cpu0.iq.int_inst_queue_reads         196398533                       # Number of integer instruction queue reads
system.cpu0.iq.int_inst_queue_writes        119792652                       # Number of integer instruction queue writes
system.cpu0.iq.int_inst_queue_wakeup_accesses     78694021                       # Number of integer instruction queue wakeup accesses
system.cpu0.iq.fp_inst_queue_reads            4021843                       # Number of floating instruction queue reads
system.cpu0.iq.fp_inst_queue_writes           3113268                       # Number of floating instruction queue writes
system.cpu0.iq.fp_inst_queue_wakeup_accesses      1824448                       # Number of floating instruction queue wakeup accesses
system.cpu0.iq.vec_inst_queue_reads                 0                       # Number of vector instruction queue reads
system.cpu0.iq.vec_inst_queue_writes                0                       # Number of vector instruction queue writes
system.cpu0.iq.vec_inst_queue_wakeup_accesses            0                       # Number of vector instruction queue wakeup accesses
system.cpu0.iq.int_alu_accesses              82731336                       # Number of integer alu accesses
system.cpu0.iq.fp_alu_accesses                2030615                       # Number of floating point alu accesses
system.cpu0.iq.vec_alu_accesses                     0                       # Number of vector alu accesses
system.cpu0.iew.lsq.thread0.forwLoads         1318635                       # Number of loads that had data forwarded from stores
system.cpu0.iew.lsq.thread0.invAddrLoads            0                       # Number of loads ignored due to an invalid address
system.cpu0.iew.lsq.thread0.squashedLoads      4140112                       # Number of loads squashed
system.cpu0.iew.lsq.thread0.ignoredResponses        10012                       # Number of memory responses ignored because the instruction is squashed
system.cpu0.iew.lsq.thread0.memOrderViolation         2769                       # Number of memory ordering violations
system.cpu0.iew.lsq.thread0.squashedStores      2550968                       # Number of stores squashed
system.cpu0.iew.lsq.thread0.invAddrSwpfs            0                       # Number of software prefetches ignored due to an invalid address
system.cpu0.iew.lsq.thread0.blockedLoads            0                       # Number of blocked loads due to partial load-store forwarding
system.cpu0.iew.lsq.thread0.rescheduledLoads          143                       # Number of loads that were rescheduled
system.cpu0.iew.lsq.thread0.cacheBlocked            0                       # Number of times an access to memory failed due to the cache being blocked
system.cpu0.iew.iewIdleCycles                       0                       # Number of cycles IEW is idle
system.cpu0.iew.iewSquashCycles               1067003                       # Number of cycles IEW is squashing
system.cpu0.iew.iewBlockCycles                3249020                       # Number of cycles IEW is blocking
system.cpu0.iew.iewUnblockCycles                 1928                       # Number of cycles IEW is unblocking
system.cpu0.iew.iewDispatchedInsts           94215602                       # Number of instructions dispatched to IQ
system.cpu0.iew.iewDispSquashedInsts            15731                       # Number of squashed instructions skipped by dispatch
system.cpu0.iew.iewDispLoadInsts             12064103                       # Number of dispatched load instructions
system.cpu0.iew.iewDispStoreInsts             9060669                       # Number of dispatched store instructions
system.cpu0.iew.iewDispNonSpecInsts             19972                       # Number of dispatched non-speculative instructions
system.cpu0.iew.iewIQFullEvents                    94                       # Number of times the IQ has become full, causing a stall
system.cpu0.iew.iewLSQFullEvents                 2012                       # Number of times the LSQ has become full, causing a stall
system.cpu0.iew.memOrderViolationEvents          2769                       # Number of memory order violations
system.cpu0.iew.predictedTakenIncorrect        297597                       # Number of branches that were predicted taken incorrectly
system.cpu0.iew.predictedNotTakenIncorrect      1099204                       # Number of branches that were predicted not taken incorrectly
system.cpu0.iew.branchMispredicts             1396801                       # Number of branch mispredicts detected at execute
system.cpu0.iew.iewExecutedInsts             81635994                       # Number of executed instructions
system.cpu0.iew.iewExecLoadInsts             10168371                       # Number of load instructions executed
system.cpu0.iew.iewExecSquashedInsts          2523996                       # Number of squashed instructions skipped in execute
system.cpu0.iew.exec_swp                            0                       # number of swp insts executed
system.cpu0.iew.exec_nop                            0                       # number of nop insts executed
system.cpu0.iew.exec_refs                    17830385                       # number of memory reference insts executed
system.cpu0.iew.exec_branches                 8801706                       # Number of branches executed
system.cpu0.iew.exec_stores                   7662014                       # Number of stores executed
system.cpu0.iew.exec_rate                    2.673549                       # Inst execution rate
system.cpu0.iew.wb_sent                      81110988                       # cumulative count of insts sent to commit
system.cpu0.iew.wb_count                     80518469                       # cumulative count of insts written-back
system.cpu0.iew.wb_producers                 56197961                       # num instructions producing a value
system.cpu0.iew.wb_consumers                 88213105                       # num instructions consuming a value
system.cpu0.iew.wb_rate                      2.636951                       # insts written-back per cycle
system.cpu0.iew.wb_fanout                    0.637070                       # average fanout of values written-back
system.cpu0.commit.commitSquashedInsts       28690096                       # The number of squashed insts skipped by commit
system.cpu0.commit.commitNonSpecStalls             24                       # The number of times commit has been forced to stall to communicate backwards
system.cpu0.commit.branchMispredicts          1066314                       # The number of times a branch was mispredicted
system.cpu0.commit.committed_per_cycle::samples     26220311                       # Number of insts commited each cycle
system.cpu0.commit.committed_per_cycle::mean     2.499070                       # Number of insts commited each cycle
system.cpu0.commit.committed_per_cycle::stdev     2.743228                       # Number of insts commited each cycle
system.cpu0.commit.committed_per_cycle::underflows            0      0.00%      0.00% # Number of insts commited each cycle
system.cpu0.commit.committed_per_cycle::0      9081102     34.63%     34.63% # Number of insts commited each cycle
system.cpu0.commit.committed_per_cycle::1      3828279     14.60%     49.23% # Number of insts commited each cycle
system.cpu0.commit.committed_per_cycle::2      2727031     10.40%     59.63% # Number of insts commited each cycle
system.cpu0.commit.committed_per_cycle::3      3664071     13.97%     73.61% # Number of insts commited each cycle
system.cpu0.commit.committed_per_cycle::4      1125153      4.29%     77.90% # Number of insts commited each cycle
system.cpu0.commit.committed_per_cycle::5      1156309      4.41%     82.31% # Number of insts commited each cycle
system.cpu0.commit.committed_per_cycle::6       825380      3.15%     85.46% # Number of insts commited each cycle
system.cpu0.commit.committed_per_cycle::7       486488      1.86%     87.31% # Number of insts commited each cycle
system.cpu0.commit.committed_per_cycle::8      3326498     12.69%    100.00% # Number of insts commited each cycle
system.cpu0.commit.committed_per_cycle::overflows            0      0.00%    100.00% # Number of insts commited each cycle
system.cpu0.commit.committed_per_cycle::min_value            0                       # Number of insts commited each cycle
system.cpu0.commit.committed_per_cycle::max_value            8                       # Number of insts commited each cycle
system.cpu0.commit.committed_per_cycle::total     26220311                       # Number of insts commited each cycle
system.cpu0.commit.committedInsts            34621617                       # Number of instructions committed
system.cpu0.commit.committedOps              65526391                       # Number of ops (including micro ops) committed
system.cpu0.commit.swp_count                        0                       # Number of s/w prefetches committed
system.cpu0.commit.refs                      14433684                       # Number of memory references committed
system.cpu0.commit.loads                      7923983                       # Number of loads committed
system.cpu0.commit.membars                          0                       # Number of memory barriers committed
system.cpu0.commit.branches                   7555001                       # Number of branches committed
system.cpu0.commit.vec_insts                        0                       # Number of committed Vector instructions.
system.cpu0.commit.fp_insts                   1358168                       # Number of committed floating point instructions.
system.cpu0.commit.int_insts                 64506162                       # Number of committed integer instructions.
system.cpu0.commit.function_calls              482374                       # Number of function calls committed.
system.cpu0.commit.op_class_0::No_OpClass       270487      0.41%      0.41% # Class of committed instruction
system.cpu0.commit.op_class_0::IntAlu        49675680     75.81%     76.22% # Class of committed instruction
system.cpu0.commit.op_class_0::IntMult          41541      0.06%     76.29% # Class of committed instruction
system.cpu0.commit.op_class_0::IntDiv           79051      0.12%     76.41% # Class of committed instruction
system.cpu0.commit.op_class_0::FloatAdd       1025948      1.57%     77.97% # Class of committed instruction
system.cpu0.commit.op_class_0::FloatCmp             0      0.00%     77.97% # Class of committed instruction
system.cpu0.commit.op_class_0::FloatCvt             0      0.00%     77.97% # Class of committed instruction
system.cpu0.commit.op_class_0::FloatMult            0      0.00%     77.97% # Class of committed instruction
system.cpu0.commit.op_class_0::FloatMultAcc            0      0.00%     77.97% # Class of committed instruction
system.cpu0.commit.op_class_0::FloatDiv             0      0.00%     77.97% # Class of committed instruction
system.cpu0.commit.op_class_0::FloatMisc            0      0.00%     77.97% # Class of committed instruction
system.cpu0.commit.op_class_0::FloatSqrt            0      0.00%     77.97% # Class of committed instruction
system.cpu0.commit.op_class_0::SimdAdd              0      0.00%     77.97% # Class of committed instruction
system.cpu0.commit.op_class_0::SimdAddAcc            0      0.00%     77.97% # Class of committed instruction
system.cpu0.commit.op_class_0::SimdAlu              0      0.00%     77.97% # Class of committed instruction
system.cpu0.commit.op_class_0::SimdCmp              0      0.00%     77.97% # Class of committed instruction
system.cpu0.commit.op_class_0::SimdCvt              0      0.00%     77.97% # Class of committed instruction
system.cpu0.commit.op_class_0::SimdMisc             0      0.00%     77.97% # Class of committed instruction
system.cpu0.commit.op_class_0::SimdMult             0      0.00%     77.97% # Class of committed instruction
system.cpu0.commit.op_class_0::SimdMultAcc            0      0.00%     77.97% # Class of committed instruction
system.cpu0.commit.op_class_0::SimdShift            0      0.00%     77.97% # Class of committed instruction
system.cpu0.commit.op_class_0::SimdShiftAcc            0      0.00%     77.97% # Class of committed instruction
system.cpu0.commit.op_class_0::SimdSqrt             0      0.00%     77.97% # Class of committed instruction
system.cpu0.commit.op_class_0::SimdFloatAdd            0      0.00%     77.97% # Class of committed instruction
system.cpu0.commit.op_class_0::SimdFloatAlu            0      0.00%     77.97% # Class of committed instruction
system.cpu0.commit.op_class_0::SimdFloatCmp            0      0.00%     77.97% # Class of committed instruction
system.cpu0.commit.op_class_0::SimdFloatCvt            0      0.00%     77.97% # Class of committed instruction
system.cpu0.commit.op_class_0::SimdFloatDiv            0      0.00%     77.97% # Class of committed instruction
system.cpu0.commit.op_class_0::SimdFloatMisc            0      0.00%     77.97% # Class of committed instruction
system.cpu0.commit.op_class_0::SimdFloatMult            0      0.00%     77.97% # Class of committed instruction
system.cpu0.commit.op_class_0::SimdFloatMultAcc            0      0.00%     77.97% # Class of committed instruction
system.cpu0.commit.op_class_0::SimdFloatSqrt            0      0.00%     77.97% # Class of committed instruction
system.cpu0.commit.op_class_0::MemRead        7636957     11.65%     89.63% # Class of committed instruction
system.cpu0.commit.op_class_0::MemWrite       6509701      9.93%     99.56% # Class of committed instruction
system.cpu0.commit.op_class_0::FloatMemRead       287026      0.44%    100.00% # Class of committed instruction
system.cpu0.commit.op_class_0::FloatMemWrite            0      0.00%    100.00% # Class of committed instruction
system.cpu0.commit.op_class_0::IprAccess            0      0.00%    100.00% # Class of committed instruction
system.cpu0.commit.op_class_0::InstPrefetch            0      0.00%    100.00% # Class of committed instruction
system.cpu0.commit.op_class_0::total         65526391                       # Class of committed instruction
system.cpu0.commit.bw_lim_events              3326498                       # number cycles where commit BW limit reached
system.cpu0.rob.rob_reads                   117110300                       # The number of ROB reads
system.cpu0.rob.rob_writes                  192829612                       # The number of ROB writes
system.cpu0.timesIdled                             27                       # Number of times that the entire CPU went into an idle state and unscheduled itself
system.cpu0.idleCycles                            251                       # Total number of cycles that the CPU has spent unscheduled due to idling
system.cpu0.committedInsts                   34621617                       # Number of Instructions Simulated
system.cpu0.committedOps                     65526391                       # Number of Ops (including micro ops) Simulated
system.cpu0.cpi                              0.881954                       # CPI: Cycles Per Instruction
system.cpu0.cpi_total                        0.881954                       # CPI: Total CPI of All Threads
system.cpu0.ipc                              1.133845                       # IPC: Instructions Per Cycle
system.cpu0.ipc_total                        1.133845                       # IPC: Total IPC of All Threads
system.cpu0.int_regfile_reads               118261604                       # number of integer regfile reads
system.cpu0.int_regfile_writes               63030109                       # number of integer regfile writes
system.cpu0.fp_regfile_reads                  2572903                       # number of floating regfile reads
system.cpu0.fp_regfile_writes                 1265235                       # number of floating regfile writes
system.cpu0.cc_regfile_reads                 40883591                       # number of cc regfile reads
system.cpu0.cc_regfile_writes                21463893                       # number of cc regfile writes
system.cpu0.misc_regfile_reads               35882746                       # number of misc regfile reads
system.cpu0.dcache.tags.pwrStateResidencyTicks::UNDEFINED  15267344125                       # Cumulative time (in ticks) in various power states
system.cpu0.dcache.tags.replacements             5079                       # number of replacements
system.cpu0.dcache.tags.tagsinuse                1024                       # Cycle average of tags in use
system.cpu0.dcache.tags.total_refs             414018                       # Total number of references to valid blocks.
system.cpu0.dcache.tags.sampled_refs             5079                       # Sample count of references to valid blocks.
system.cpu0.dcache.tags.avg_refs            81.515653                       # Average number of references to valid blocks.
system.cpu0.dcache.tags.warmup_cycle                0                       # Cycle when the warmup percentage was hit.
system.cpu0.dcache.tags.occ_blocks::cpu0.data         1024                       # Average occupied blocks per requestor
system.cpu0.dcache.tags.occ_percent::cpu0.data            1                       # Average percentage of cache occupancy
system.cpu0.dcache.tags.occ_percent::total            1                       # Average percentage of cache occupancy
system.cpu0.dcache.tags.occ_task_id_blocks::1024         1024                       # Occupied blocks per task id
system.cpu0.dcache.tags.age_task_id_blocks_1024::0            5                       # Occupied blocks per task id
system.cpu0.dcache.tags.age_task_id_blocks_1024::1           35                       # Occupied blocks per task id
system.cpu0.dcache.tags.age_task_id_blocks_1024::2          268                       # Occupied blocks per task id
system.cpu0.dcache.tags.age_task_id_blocks_1024::3          449                       # Occupied blocks per task id
system.cpu0.dcache.tags.age_task_id_blocks_1024::4          267                       # Occupied blocks per task id
system.cpu0.dcache.tags.occ_task_id_percent::1024            1                       # Percentage of cache occupancy per task id
system.cpu0.dcache.tags.tag_accesses         60960255                       # Number of tag accesses
system.cpu0.dcache.tags.data_accesses        60960255                       # Number of data accesses
system.cpu0.dcache.pwrStateResidencyTicks::UNDEFINED  15267344125                       # Cumulative time (in ticks) in various power states
system.cpu0.dcache.ReadReq_hits::cpu0.data      8722021                       # number of ReadReq hits
system.cpu0.dcache.ReadReq_hits::total        8722021                       # number of ReadReq hits
system.cpu0.dcache.WriteReq_hits::cpu0.data      6509513                       # number of WriteReq hits
system.cpu0.dcache.WriteReq_hits::total       6509513                       # number of WriteReq hits
system.cpu0.dcache.demand_hits::cpu0.data     15231534                       # number of demand (read+write) hits
system.cpu0.dcache.demand_hits::total        15231534                       # number of demand (read+write) hits
system.cpu0.dcache.overall_hits::cpu0.data     15231534                       # number of overall hits
system.cpu0.dcache.overall_hits::total       15231534                       # number of overall hits
system.cpu0.dcache.ReadReq_misses::cpu0.data         3777                       # number of ReadReq misses
system.cpu0.dcache.ReadReq_misses::total         3777                       # number of ReadReq misses
system.cpu0.dcache.WriteReq_misses::cpu0.data         3483                       # number of WriteReq misses
system.cpu0.dcache.WriteReq_misses::total         3483                       # number of WriteReq misses
system.cpu0.dcache.demand_misses::cpu0.data         7260                       # number of demand (read+write) misses
system.cpu0.dcache.demand_misses::total          7260                       # number of demand (read+write) misses
system.cpu0.dcache.overall_misses::cpu0.data         7260                       # number of overall misses
system.cpu0.dcache.overall_misses::total         7260                       # number of overall misses
system.cpu0.dcache.ReadReq_miss_latency::cpu0.data     55366000                       # number of ReadReq miss cycles
system.cpu0.dcache.ReadReq_miss_latency::total     55366000                       # number of ReadReq miss cycles
system.cpu0.dcache.WriteReq_miss_latency::cpu0.data    513000500                       # number of WriteReq miss cycles
system.cpu0.dcache.WriteReq_miss_latency::total    513000500                       # number of WriteReq miss cycles
system.cpu0.dcache.demand_miss_latency::cpu0.data    568366500                       # number of demand (read+write) miss cycles
system.cpu0.dcache.demand_miss_latency::total    568366500                       # number of demand (read+write) miss cycles
system.cpu0.dcache.overall_miss_latency::cpu0.data    568366500                       # number of overall miss cycles
system.cpu0.dcache.overall_miss_latency::total    568366500                       # number of overall miss cycles
system.cpu0.dcache.ReadReq_accesses::cpu0.data      8725798                       # number of ReadReq accesses(hits+misses)
system.cpu0.dcache.ReadReq_accesses::total      8725798                       # number of ReadReq accesses(hits+misses)
system.cpu0.dcache.WriteReq_accesses::cpu0.data      6512996                       # number of WriteReq accesses(hits+misses)
system.cpu0.dcache.WriteReq_accesses::total      6512996                       # number of WriteReq accesses(hits+misses)
system.cpu0.dcache.demand_accesses::cpu0.data     15238794                       # number of demand (read+write) accesses
system.cpu0.dcache.demand_accesses::total     15238794                       # number of demand (read+write) accesses
system.cpu0.dcache.overall_accesses::cpu0.data     15238794                       # number of overall (read+write) accesses
system.cpu0.dcache.overall_accesses::total     15238794                       # number of overall (read+write) accesses
system.cpu0.dcache.ReadReq_miss_rate::cpu0.data     0.000433                       # miss rate for ReadReq accesses
system.cpu0.dcache.ReadReq_miss_rate::total     0.000433                       # miss rate for ReadReq accesses
system.cpu0.dcache.WriteReq_miss_rate::cpu0.data     0.000535                       # miss rate for WriteReq accesses
system.cpu0.dcache.WriteReq_miss_rate::total     0.000535                       # miss rate for WriteReq accesses
system.cpu0.dcache.demand_miss_rate::cpu0.data     0.000476                       # miss rate for demand accesses
system.cpu0.dcache.demand_miss_rate::total     0.000476                       # miss rate for demand accesses
system.cpu0.dcache.overall_miss_rate::cpu0.data     0.000476                       # miss rate for overall accesses
system.cpu0.dcache.overall_miss_rate::total     0.000476                       # miss rate for overall accesses
system.cpu0.dcache.ReadReq_avg_miss_latency::cpu0.data 14658.723855                       # average ReadReq miss latency
system.cpu0.dcache.ReadReq_avg_miss_latency::total 14658.723855                       # average ReadReq miss latency
system.cpu0.dcache.WriteReq_avg_miss_latency::cpu0.data 147286.965260                       # average WriteReq miss latency
system.cpu0.dcache.WriteReq_avg_miss_latency::total 147286.965260                       # average WriteReq miss latency
system.cpu0.dcache.demand_avg_miss_latency::cpu0.data 78287.396694                       # average overall miss latency
system.cpu0.dcache.demand_avg_miss_latency::total 78287.396694                       # average overall miss latency
system.cpu0.dcache.overall_avg_miss_latency::cpu0.data 78287.396694                       # average overall miss latency
system.cpu0.dcache.overall_avg_miss_latency::total 78287.396694                       # average overall miss latency
system.cpu0.dcache.blocked_cycles::no_mshrs            0                       # number of cycles access was blocked
system.cpu0.dcache.blocked_cycles::no_targets            0                       # number of cycles access was blocked
system.cpu0.dcache.blocked::no_mshrs                0                       # number of cycles access was blocked
system.cpu0.dcache.blocked::no_targets              0                       # number of cycles access was blocked
system.cpu0.dcache.avg_blocked_cycles::no_mshrs          nan                       # average number of cycles each access was blocked
system.cpu0.dcache.avg_blocked_cycles::no_targets          nan                       # average number of cycles each access was blocked
system.cpu0.dcache.writebacks::writebacks         4639                       # number of writebacks
system.cpu0.dcache.writebacks::total             4639                       # number of writebacks
system.cpu0.dcache.ReadReq_mshr_hits::cpu0.data         2140                       # number of ReadReq MSHR hits
system.cpu0.dcache.ReadReq_mshr_hits::total         2140                       # number of ReadReq MSHR hits
system.cpu0.dcache.WriteReq_mshr_hits::cpu0.data           39                       # number of WriteReq MSHR hits
system.cpu0.dcache.WriteReq_mshr_hits::total           39                       # number of WriteReq MSHR hits
system.cpu0.dcache.demand_mshr_hits::cpu0.data         2179                       # number of demand (read+write) MSHR hits
system.cpu0.dcache.demand_mshr_hits::total         2179                       # number of demand (read+write) MSHR hits
system.cpu0.dcache.overall_mshr_hits::cpu0.data         2179                       # number of overall MSHR hits
system.cpu0.dcache.overall_mshr_hits::total         2179                       # number of overall MSHR hits
system.cpu0.dcache.ReadReq_mshr_misses::cpu0.data         1637                       # number of ReadReq MSHR misses
system.cpu0.dcache.ReadReq_mshr_misses::total         1637                       # number of ReadReq MSHR misses
system.cpu0.dcache.WriteReq_mshr_misses::cpu0.data         3444                       # number of WriteReq MSHR misses
system.cpu0.dcache.WriteReq_mshr_misses::total         3444                       # number of WriteReq MSHR misses
system.cpu0.dcache.demand_mshr_misses::cpu0.data         5081                       # number of demand (read+write) MSHR misses
system.cpu0.dcache.demand_mshr_misses::total         5081                       # number of demand (read+write) MSHR misses
system.cpu0.dcache.overall_mshr_misses::cpu0.data         5081                       # number of overall MSHR misses
system.cpu0.dcache.overall_mshr_misses::total         5081                       # number of overall MSHR misses
system.cpu0.dcache.ReadReq_mshr_miss_latency::cpu0.data     24964000                       # number of ReadReq MSHR miss cycles
system.cpu0.dcache.ReadReq_mshr_miss_latency::total     24964000                       # number of ReadReq MSHR miss cycles
system.cpu0.dcache.WriteReq_mshr_miss_latency::cpu0.data    504781000                       # number of WriteReq MSHR miss cycles
[...]
system.l2.overall_accesses::cpu0.data            5079                       # number of overall (read+write) accesses
system.l2.overall_accesses::total                6574                       # number of overall (read+write) accesses
system.l2.ReadExReq_miss_rate::cpu0.data     0.998548                       # miss rate for ReadExReq accesses
system.l2.ReadExReq_miss_rate::total         0.998548                       # miss rate for ReadExReq accesses
system.l2.ReadCleanReq_miss_rate::cpu0.inst     0.004013                       # miss rate for ReadCleanReq accesses
system.l2.ReadCleanReq_miss_rate::total      0.004013                       # miss rate for ReadCleanReq accesses
system.l2.ReadSharedReq_miss_rate::cpu0.data     0.026284                       # miss rate for ReadSharedReq accesses
system.l2.ReadSharedReq_miss_rate::total     0.026284                       # miss rate for ReadSharedReq accesses
system.l2.demand_miss_rate::cpu0.inst        0.004013                       # miss rate for demand accesses
system.l2.demand_miss_rate::cpu0.data        0.685371                       # miss rate for demand accesses
system.l2.demand_miss_rate::total            0.530423                       # miss rate for demand accesses
system.l2.overall_miss_rate::cpu0.inst       0.004013                       # miss rate for overall accesses
system.l2.overall_miss_rate::cpu0.data       0.685371                       # miss rate for overall accesses
system.l2.overall_miss_rate::total           0.530423                       # miss rate for overall accesses
system.l2.ReadExReq_avg_miss_latency::cpu0.data 145325.043630                       # average ReadExReq miss latency
system.l2.ReadExReq_avg_miss_latency::total 145325.043630                       # average ReadExReq miss latency
system.l2.ReadCleanReq_avg_miss_latency::cpu0.inst       264500                       # average ReadCleanReq miss latency
system.l2.ReadCleanReq_avg_miss_latency::total       264500                       # average ReadCleanReq miss latency
system.l2.ReadSharedReq_avg_miss_latency::cpu0.data 130767.441860                       # average ReadSharedReq miss latency
system.l2.ReadSharedReq_avg_miss_latency::total 130767.441860                       # average ReadSharedReq miss latency
system.l2.demand_avg_miss_latency::cpu0.inst       264500                       # average overall miss latency
system.l2.demand_avg_miss_latency::cpu0.data 145145.216892                       # average overall miss latency
system.l2.demand_avg_miss_latency::total 145350.587898                       # average overall miss latency
system.l2.overall_avg_miss_latency::cpu0.inst       264500                       # average overall miss latency
system.l2.overall_avg_miss_latency::cpu0.data 145145.216892                       # average overall miss latency
system.l2.overall_avg_miss_latency::total 145350.587898                       # average overall miss latency
system.l2.blocked_cycles::no_mshrs                  0                       # number of cycles access was blocked
system.l2.blocked_cycles::no_targets                0                       # number of cycles access was blocked
system.l2.blocked::no_mshrs                         0                       # number of cycles access was blocked
system.l2.blocked::no_targets                       0                       # number of cycles access was blocked
system.l2.avg_blocked_cycles::no_mshrs            nan                       # average number of cycles each access was blocked
system.l2.avg_blocked_cycles::no_targets          nan                       # average number of cycles each access was blocked
system.l2.ReadExReq_mshr_misses::cpu0.data         3438                       # number of ReadExReq MSHR misses
system.l2.ReadExReq_mshr_misses::total           3438                       # number of ReadExReq MSHR misses
system.l2.ReadCleanReq_mshr_misses::cpu0.inst            6                       # number of ReadCleanReq MSHR misses
system.l2.ReadCleanReq_mshr_misses::total            6                       # number of ReadCleanReq MSHR misses
system.l2.ReadSharedReq_mshr_misses::cpu0.data           43                       # number of ReadSharedReq MSHR misses
system.l2.ReadSharedReq_mshr_misses::total           43                       # number of ReadSharedReq MSHR misses
system.l2.demand_mshr_misses::cpu0.inst             6                       # number of demand (read+write) MSHR misses
system.l2.demand_mshr_misses::cpu0.data          3481                       # number of demand (read+write) MSHR misses
system.l2.demand_mshr_misses::total              3487                       # number of demand (read+write) MSHR misses
system.l2.overall_mshr_misses::cpu0.inst            6                       # number of overall MSHR misses
system.l2.overall_mshr_misses::cpu0.data         3481                       # number of overall MSHR misses
system.l2.overall_mshr_misses::total             3487                       # number of overall MSHR misses
system.l2.ReadExReq_mshr_miss_latency::cpu0.data    465247500                       # number of ReadExReq MSHR miss cycles
system.l2.ReadExReq_mshr_miss_latency::total    465247500                       # number of ReadExReq MSHR miss cycles
system.l2.ReadCleanReq_mshr_miss_latency::cpu0.inst      1527000                       # number of ReadCleanReq MSHR miss cycles
system.l2.ReadCleanReq_mshr_miss_latency::total      1527000                       # number of ReadCleanReq MSHR miss cycles
system.l2.ReadSharedReq_mshr_miss_latency::cpu0.data      5193000                       # number of ReadSharedReq MSHR miss cycles
system.l2.ReadSharedReq_mshr_miss_latency::total      5193000                       # number of ReadSharedReq MSHR miss cycles
system.l2.demand_mshr_miss_latency::cpu0.inst      1527000                       # number of demand (read+write) MSHR miss cycles
system.l2.demand_mshr_miss_latency::cpu0.data    470440500                       # number of demand (read+write) MSHR miss cycles
system.l2.demand_mshr_miss_latency::total    471967500                       # number of demand (read+write) MSHR miss cycles
system.l2.overall_mshr_miss_latency::cpu0.inst      1527000                       # number of overall MSHR miss cycles
system.l2.overall_mshr_miss_latency::cpu0.data    470440500                       # number of overall MSHR miss cycles
system.l2.overall_mshr_miss_latency::total    471967500                       # number of overall MSHR miss cycles
system.l2.ReadExReq_mshr_miss_rate::cpu0.data     0.998548                       # mshr miss rate for ReadExReq accesses
system.l2.ReadExReq_mshr_miss_rate::total     0.998548                       # mshr miss rate for ReadExReq accesses
system.l2.ReadCleanReq_mshr_miss_rate::cpu0.inst     0.004013                       # mshr miss rate for ReadCleanReq accesses
system.l2.ReadCleanReq_mshr_miss_rate::total     0.004013                       # mshr miss rate for ReadCleanReq accesses
system.l2.ReadSharedReq_mshr_miss_rate::cpu0.data     0.026284                       # mshr miss rate for ReadSharedReq accesses
system.l2.ReadSharedReq_mshr_miss_rate::total     0.026284                       # mshr miss rate for ReadSharedReq accesses
system.l2.demand_mshr_miss_rate::cpu0.inst     0.004013                       # mshr miss rate for demand accesses
system.l2.demand_mshr_miss_rate::cpu0.data     0.685371                       # mshr miss rate for demand accesses
system.l2.demand_mshr_miss_rate::total       0.530423                       # mshr miss rate for demand accesses
system.l2.overall_mshr_miss_rate::cpu0.inst     0.004013                       # mshr miss rate for overall accesses
system.l2.overall_mshr_miss_rate::cpu0.data     0.685371                       # mshr miss rate for overall accesses
system.l2.overall_mshr_miss_rate::total      0.530423                       # mshr miss rate for overall accesses
system.l2.ReadExReq_avg_mshr_miss_latency::cpu0.data 135325.043630                       # average ReadExReq mshr miss latency
system.l2.ReadExReq_avg_mshr_miss_latency::total 135325.043630                       # average ReadExReq mshr miss latency
system.l2.ReadCleanReq_avg_mshr_miss_latency::cpu0.inst       254500                       # average ReadCleanReq mshr miss latency
system.l2.ReadCleanReq_avg_mshr_miss_latency::total       254500                       # average ReadCleanReq mshr miss latency
system.l2.ReadSharedReq_avg_mshr_miss_latency::cpu0.data 120767.441860                       # average ReadSharedReq mshr miss latency
system.l2.ReadSharedReq_avg_mshr_miss_latency::total 120767.441860                       # average ReadSharedReq mshr miss latency
system.l2.demand_avg_mshr_miss_latency::cpu0.inst       254500                       # average overall mshr miss latency
system.l2.demand_avg_mshr_miss_latency::cpu0.data 135145.216892                       # average overall mshr miss latency
system.l2.demand_avg_mshr_miss_latency::total 135350.587898                       # average overall mshr miss latency
system.l2.overall_avg_mshr_miss_latency::cpu0.inst       254500                       # average overall mshr miss latency
system.l2.overall_avg_mshr_miss_latency::cpu0.data 135145.216892                       # average overall mshr miss latency
system.l2.overall_avg_mshr_miss_latency::total 135350.587898                       # average overall mshr miss latency
system.membus.snoop_filter.tot_requests          3487                       # Total number of requests made to the snoop filter.
system.membus.snoop_filter.hit_single_requests            0                       # Number of requests hitting in the snoop filter with a single holder of the requested data.
system.membus.snoop_filter.hit_multi_requests            0                       # Number of requests hitting in the snoop filter with multiple (>1) holders of the requested data.
system.membus.snoop_filter.tot_snoops               0                       # Total number of snoops made to the snoop filter.
system.membus.snoop_filter.hit_single_snoops            0                       # Number of snoops hitting in the snoop filter with a single holder of the requested data.
system.membus.snoop_filter.hit_multi_snoops            0                       # Number of snoops hitting in the snoop filter with multiple (>1) holders of the requested data.
system.membus.pwrStateResidencyTicks::UNDEFINED  15267344125                       # Cumulative time (in ticks) in various power states
system.membus.trans_dist::ReadResp                 49                       # Transaction distribution
system.membus.trans_dist::ReadExReq              3438                       # Transaction distribution
system.membus.trans_dist::ReadExResp             3438                       # Transaction distribution
system.membus.trans_dist::ReadSharedReq            49                       # Transaction distribution
system.membus.pkt_count_system.l2.mem_side::system.mem_ctrls.port         6974                       # Packet count per connected master and slave (bytes)
system.membus.pkt_count_system.l2.mem_side::total         6974                       # Packet count per connected master and slave (bytes)
system.membus.pkt_count::total                   6974                       # Packet count per connected master and slave (bytes)
system.membus.pkt_size_system.l2.mem_side::system.mem_ctrls.port       223168                       # Cumulative packet size per connected master and slave (bytes)
system.membus.pkt_size_system.l2.mem_side::total       223168                       # Cumulative packet size per connected master and slave (bytes)
system.membus.pkt_size::total                  223168                       # Cumulative packet size per connected master and slave (bytes)
system.membus.snoops                                0                       # Total snoops (count)
system.membus.snoopTraffic                          0                       # Total snoop traffic (bytes)
system.membus.snoop_fanout::samples              3487                       # Request fanout histogram
system.membus.snoop_fanout::mean                    0                       # Request fanout histogram
system.membus.snoop_fanout::stdev                   0                       # Request fanout histogram
system.membus.snoop_fanout::underflows              0      0.00%      0.00% # Request fanout histogram
system.membus.snoop_fanout::0                    3487    100.00%    100.00% # Request fanout histogram
system.membus.snoop_fanout::1                       0      0.00%    100.00% # Request fanout histogram
system.membus.snoop_fanout::overflows               0      0.00%    100.00% # Request fanout histogram
system.membus.snoop_fanout::min_value               0                       # Request fanout histogram
system.membus.snoop_fanout::max_value               0                       # Request fanout histogram
system.membus.snoop_fanout::total                3487                       # Request fanout histogram
system.membus.reqLayer8.occupancy             4353000                       # Layer occupancy (ticks)
system.membus.reqLayer8.utilization               0.0                       # Layer utilization (%)
system.membus.respLayer1.occupancy           19201000                       # Layer occupancy (ticks)
system.membus.respLayer1.utilization              0.1                       # Layer utilization (%)
system.tol2bus.snoop_filter.tot_requests        13154                       # Total number of requests made to the snoop filter.
system.tol2bus.snoop_filter.hit_single_requests         6581                       # Number of requests hitting in the snoop filter with a single holder of the requested data.
system.tol2bus.snoop_filter.hit_multi_requests            6                       # Number of requests hitting in the snoop filter with multiple (>1) holders of the requested data.
system.tol2bus.snoop_filter.tot_snoops              0                       # Total number of snoops made to the snoop filter.
system.tol2bus.snoop_filter.hit_single_snoops            0                       # Number of snoops hitting in the snoop filter with a single holder of the requested data.
system.tol2bus.snoop_filter.hit_multi_snoops            0                       # Number of snoops hitting in the snoop filter with multiple (>1) holders of the requested data.
system.tol2bus.pwrStateResidencyTicks::UNDEFINED  15267344125                       # Cumulative time (in ticks) in various power states
system.tol2bus.trans_dist::ReadResp              3133                       # Transaction distribution
system.tol2bus.trans_dist::WritebackDirty         4639                       # Transaction distribution
system.tol2bus.trans_dist::WritebackClean         1497                       # Transaction distribution
system.tol2bus.trans_dist::CleanEvict             440                       # Transaction distribution
system.tol2bus.trans_dist::UpgradeReq               2                       # Transaction distribution
system.tol2bus.trans_dist::UpgradeResp              2                       # Transaction distribution
system.tol2bus.trans_dist::ReadExReq             3443                       # Transaction distribution
system.tol2bus.trans_dist::ReadExResp            3443                       # Transaction distribution
system.tol2bus.trans_dist::ReadCleanReq          1497                       # Transaction distribution
system.tol2bus.trans_dist::ReadSharedReq         1636                       # Transaction distribution
system.tol2bus.pkt_count_system.cpu0.icache.mem_side::system.l2.cpu_side         4489                       # Packet count per connected master and slave (bytes)
system.tol2bus.pkt_count_system.cpu0.dcache.mem_side::system.l2.cpu_side        15241                       # Packet count per connected master and slave (bytes)
system.tol2bus.pkt_count::total                 19730                       # Packet count per connected master and slave (bytes)
system.tol2bus.pkt_size_system.cpu0.icache.mem_side::system.l2.cpu_side       191488                       # Cumulative packet size per connected master and slave (bytes)
system.tol2bus.pkt_size_system.cpu0.dcache.mem_side::system.l2.cpu_side       621952                       # Cumulative packet size per connected master and slave (bytes)
system.tol2bus.pkt_size::total                 813440                       # Cumulative packet size per connected master and slave (bytes)
system.tol2bus.snoops                               2                       # Total snoops (count)
system.tol2bus.snoopTraffic                       128                       # Total snoop traffic (bytes)
system.tol2bus.snoop_fanout::samples             6578                       # Request fanout histogram
system.tol2bus.snoop_fanout::mean            0.001672                       # Request fanout histogram
system.tol2bus.snoop_fanout::stdev           0.040862                       # Request fanout histogram
system.tol2bus.snoop_fanout::underflows             0      0.00%      0.00% # Request fanout histogram
system.tol2bus.snoop_fanout::0                   6567     99.83%     99.83% # Request fanout histogram
system.tol2bus.snoop_fanout::1                     11      0.17%    100.00% # Request fanout histogram
system.tol2bus.snoop_fanout::2                      0      0.00%    100.00% # Request fanout histogram
system.tol2bus.snoop_fanout::3                      0      0.00%    100.00% # Request fanout histogram
system.tol2bus.snoop_fanout::4                      0      0.00%    100.00% # Request fanout histogram
system.tol2bus.snoop_fanout::5                      0      0.00%    100.00% # Request fanout histogram
system.tol2bus.snoop_fanout::6                      0      0.00%    100.00% # Request fanout histogram
system.tol2bus.snoop_fanout::7                      0      0.00%    100.00% # Request fanout histogram
system.tol2bus.snoop_fanout::8                      0      0.00%    100.00% # Request fanout histogram
system.tol2bus.snoop_fanout::9                      0      0.00%    100.00% # Request fanout histogram
system.tol2bus.snoop_fanout::10                     0      0.00%    100.00% # Request fanout histogram
system.tol2bus.snoop_fanout::11                     0      0.00%    100.00% # Request fanout histogram
system.tol2bus.snoop_fanout::12                     0      0.00%    100.00% # Request fanout histogram
system.tol2bus.snoop_fanout::13                     0      0.00%    100.00% # Request fanout histogram
system.tol2bus.snoop_fanout::14                     0      0.00%    100.00% # Request fanout histogram
system.tol2bus.snoop_fanout::15                     0      0.00%    100.00% # Request fanout histogram
system.tol2bus.snoop_fanout::16                     0      0.00%    100.00% # Request fanout histogram
system.tol2bus.snoop_fanout::overflows              0      0.00%    100.00% # Request fanout histogram
system.tol2bus.snoop_fanout::min_value              0                       # Request fanout histogram
system.tol2bus.snoop_fanout::max_value              1                       # Request fanout histogram
system.tol2bus.snoop_fanout::total               6578                       # Request fanout histogram
system.tol2bus.reqLayer0.occupancy           12713000                       # Layer occupancy (ticks)
system.tol2bus.reqLayer0.utilization              0.1                       # Layer utilization (%)
system.tol2bus.respLayer0.occupancy           2245999                       # Layer occupancy (ticks)
system.tol2bus.respLayer0.utilization             0.0                       # Layer utilization (%)
system.tol2bus.respLayer1.occupancy           7619500                       # Layer occupancy (ticks)
system.tol2bus.respLayer1.utilization             0.0                       # Layer utilization (%)

---------- End Simulation Statistics   ----------
