
---------- Begin Simulation Statistics ----------
sim_seconds                                  0.015267                       # Number of seconds simulated
sim_ticks                                 15267344125                       # Number of ticks simulated
final_tick                               3832103375375                       # Number of ticks from beginning of simulation (restored from checkpoints and never reset)
sim_freq                                 1000000000000                       # Frequency of simulated ticks
host_inst_rate                               83397056                       # Simulator instruction rate (inst/s)
host_op_rate                                154780874                       # Simulator op (including micro ops) rate (op/s)
host_tick_rate                              223536053                       # Simulator tick rate (ticks/s)
host_mem_usage                                2332532                       # Number of bytes of host memory used
host_seconds                                    68.30                       # Real time elapsed on the host
sim_insts                                  5695953063                       # Number of instructions simulated
sim_ops                                   10571414518                       # Number of ops (including micro ops) simulated
system.voltage_domain.voltage                       1                       # Voltage in Volts
system.clk_domain.clock                          1000                       # Clock period in ticks
system.mem_ctrls.pwrStateResidencyTicks::UNDEFINED  15267344125                       # Cumulative time (in ticks) in various power states
system.mem_ctrls.bytes_read::cpu0.inst             64                       # Number of bytes read from this memory
system.mem_ctrls.bytes_read::cpu0.data       11154560                       # Number of bytes read from this memory
system.mem_ctrls.bytes_read::total           11154624                       # Number of bytes read from this memory
system.mem_ctrls.bytes_inst_read::cpu0.inst           64                       # Number of instructions bytes read from this memory
system.mem_ctrls.bytes_inst_read::total            64                       # Number of instructions bytes read from this memory
system.mem_ctrls.bytes_written::writebacks        35904                       # Number of bytes written to this memory
system.mem_ctrls.bytes_written::total           35904                       # Number of bytes written to this memory
system.mem_ctrls.num_reads::cpu0.inst               1                       # Number of read requests responded to by this memory
system.mem_ctrls.num_reads::cpu0.data          174290                       # Number of read requests responded to by this memory
system.mem_ctrls.num_reads::total              174291                       # Number of read requests responded to by this memory
system.mem_ctrls.num_writes::writebacks           561                       # Number of write requests responded to by this memory
system.mem_ctrls.num_writes::total                561                       # Number of write requests responded to by this memory
system.mem_ctrls.bw_read::cpu0.inst              4192                       # Total read bandwidth from this memory (bytes/s)
system.mem_ctrls.bw_read::cpu0.data         730615614                       # Total read bandwidth from this memory (bytes/s)
system.mem_ctrls.bw_read::total             730619806                       # Total read bandwidth from this memory (bytes/s)
system.mem_ctrls.bw_inst_read::cpu0.inst         4192                       # Instruction read bandwidth from this memory (bytes/s)
system.mem_ctrls.bw_inst_read::total             4192                       # Instruction read bandwidth from this memory (bytes/s)
system.mem_ctrls.bw_write::writebacks         2351686                       # Write bandwidth from this memory (bytes/s)
system.mem_ctrls.bw_write::total              2351686                       # Write bandwidth from this memory (bytes/s)
system.mem_ctrls.bw_total::writebacks         2351686                       # Total bandwidth to/from this memory (bytes/s)
system.mem_ctrls.bw_total::cpu0.inst             4192                       # Total bandwidth to/from this memory (bytes/s)
system.mem_ctrls.bw_total::cpu0.data        730615614                       # Total bandwidth to/from this memory (bytes/s)
system.mem_ctrls.bw_total::total            732971492                       # Total bandwidth to/from this memory (bytes/s)
system.mem_ctrls.readReqs                      174291                       # Number of read requests accepted
system.mem_ctrls.writeReqs                        561                       # Number of write requests accepted
system.mem_ctrls.readBursts                    174291                       # Number of DRAM read bursts, including those serviced by the write queue
system.mem_ctrls.writeBursts                      561                       # Number of DRAM write bursts, including those merged in the write queue
system.mem_ctrls.bytesReadDRAM               11149824                       # Total number of bytes read from DRAM
system.mem_ctrls.bytesReadWrQ                    4800                       # Total number of bytes read from write queue
system.mem_ctrls.bytesWritten                   36288                       # Total number of bytes written to DRAM
system.mem_ctrls.bytesReadSys                11154624                       # Total read bytes from the system interface side
system.mem_ctrls.bytesWrittenSys                35904                       # Total written bytes from the system interface side
system.mem_ctrls.servicedByWrQ                     75                       # Number of DRAM read bursts serviced by the write queue
system.mem_ctrls.mergedWrBursts                     0                       # Number of DRAM write bursts merged with an existing one
system.mem_ctrls.neitherReadNorWriteReqs            0                       # Number of requests that are neither read nor write
system.mem_ctrls.perBankRdBursts::0             10582                       # Per bank write bursts
system.mem_ctrls.perBankRdBursts::1             10452                       # Per bank write bursts
system.mem_ctrls.perBankRdBursts::2             10386                       # Per bank write bursts
system.mem_ctrls.perBankRdBursts::3             11220                       # Per bank write bursts
system.mem_ctrls.perBankRdBursts::4             11911                       # Per bank write bursts
system.mem_ctrls.perBankRdBursts::5             11555                       # Per bank write bursts
system.mem_ctrls.perBankRdBursts::6             11225                       # Per bank write bursts
system.mem_ctrls.perBankRdBursts::7             10991                       # Per bank write bursts
system.mem_ctrls.perBankRdBursts::8             10943                       # Per bank write bursts
system.mem_ctrls.perBankRdBursts::9             10777                       # Per bank write bursts
system.mem_ctrls.perBankRdBursts::10            10754                       # Per bank write bursts
system.mem_ctrls.perBankRdBursts::11            10648                       # Per bank write bursts
system.mem_ctrls.perBankRdBursts::12            10685                       # Per bank write bursts
system.mem_ctrls.perBankRdBursts::13            10964                       # Per bank write bursts
system.mem_ctrls.perBankRdBursts::14            10463                       # Per bank write bursts
system.mem_ctrls.perBankRdBursts::15            10660                       # Per bank write bursts
system.mem_ctrls.perBankWrBursts::0                 0                       # Per bank write bursts
system.mem_ctrls.perBankWrBursts::1                 0                       # Per bank write bursts
system.mem_ctrls.perBankWrBursts::2                 0                       # Per bank write bursts
system.mem_ctrls.perBankWrBursts::3                94                       # Per bank write bursts
system.mem_ctrls.perBankWrBursts::4                34                       # Per bank write bursts
system.mem_ctrls.perBankWrBursts::5                12                       # Per bank write bursts
system.mem_ctrls.perBankWrBursts::6                63                       # Per bank write bursts
system.mem_ctrls.perBankWrBursts::7               165                       # Per bank write bursts
system.mem_ctrls.perBankWrBursts::8               124                       # Per bank write bursts
system.mem_ctrls.perBankWrBursts::9                75                       # Per bank write bursts
system.mem_ctrls.perBankWrBursts::10                0                       # Per bank write bursts
system.mem_ctrls.perBankWrBursts::11                0                       # Per bank write bursts
system.mem_ctrls.perBankWrBursts::12                0                       # Per bank write bursts
system.mem_ctrls.perBankWrBursts::13                0                       # Per bank write bursts
system.mem_ctrls.perBankWrBursts::14                0                       # Per bank write bursts
system.mem_ctrls.perBankWrBursts::15                0                       # Per bank write bursts
system.mem_ctrls.numRdRetry                         0                       # Number of times read queue was full causing retry
system.mem_ctrls.numWrRetry                         0                       # Number of times write queue was full causing retry
system.mem_ctrls.totGap                   15267377000                       # Total gap between requests
system.mem_ctrls.readPktSize::0                     0                       # Read request sizes (log2)
system.mem_ctrls.readPktSize::1                     0                       # Read request sizes (log2)
system.mem_ctrls.readPktSize::2                     0                       # Read request sizes (log2)
system.mem_ctrls.readPktSize::3                     0                       # Read request sizes (log2)
system.mem_ctrls.readPktSize::4                     0                       # Read request sizes (log2)
system.mem_ctrls.readPktSize::5                     0                       # Read request sizes (log2)
system.mem_ctrls.readPktSize::6                174291                       # Read request sizes (log2)
system.mem_ctrls.writePktSize::0                    0                       # Write request sizes (log2)
system.mem_ctrls.writePktSize::1                    0                       # Write request sizes (log2)
system.mem_ctrls.writePktSize::2                    0                       # Write request sizes (log2)
system.mem_ctrls.writePktSize::3                    0                       # Write request sizes (log2)
system.mem_ctrls.writePktSize::4                    0                       # Write request sizes (log2)
system.mem_ctrls.writePktSize::5                    0                       # Write request sizes (log2)
system.mem_ctrls.writePktSize::6                  561                       # Write request sizes (log2)
system.mem_ctrls.rdQLenPdf::0                  135199                       # What read queue length does an incoming req see
system.mem_ctrls.rdQLenPdf::1                   36826                       # What read queue length does an incoming req see
system.mem_ctrls.rdQLenPdf::2                    2140                       # What read queue length does an incoming req see
system.mem_ctrls.rdQLenPdf::3                      51                       # What read queue length does an incoming req see
system.mem_ctrls.rdQLenPdf::4                       0                       # What read queue length does an incoming req see
system.mem_ctrls.rdQLenPdf::5                       0                       # What read queue length does an incoming req see
system.mem_ctrls.rdQLenPdf::6                       0                       # What read queue length does an incoming req see
system.mem_ctrls.rdQLenPdf::7                       0                       # What read queue length does an incoming req see
system.mem_ctrls.rdQLenPdf::8                       0                       # What read queue length does an incoming req see
system.mem_ctrls.rdQLenPdf::9                       0                       # What read queue length does an incoming req see
system.mem_ctrls.rdQLenPdf::10                      0                       # What read queue length does an incoming req see
system.mem_ctrls.rdQLenPdf::11                      0                       # What read queue length does an incoming req see
system.mem_ctrls.rdQLenPdf::12                      0                       # What read queue length does an incoming req see
system.mem_ctrls.rdQLenPdf::13                      0                       # What read queue length does an incoming req see
system.mem_ctrls.rdQLenPdf::14                      0                       # What read queue length does an incoming req see
system.mem_ctrls.rdQLenPdf::15                      0                       # What read queue length does an incoming req see
system.mem_ctrls.rdQLenPdf::16                      0                       # What read queue length does an incoming req see
system.mem_ctrls.rdQLenPdf::17                      0                       # What read queue length does an incoming req see
system.mem_ctrls.rdQLenPdf::18                      0                       # What read queue length does an incoming req see
system.mem_ctrls.rdQLenPdf::19                      0                       # What read queue length does an incoming req see
system.mem_ctrls.rdQLenPdf::20                      0                       # What read queue length does an incoming req see
system.mem_ctrls.rdQLenPdf::21                      0                       # What read queue length does an incoming req see
system.mem_ctrls.rdQLenPdf::22                      0                       # What read queue length does an incoming req see
system.mem_ctrls.rdQLenPdf::23                      0                       # What read queue length does an incoming req see
system.mem_ctrls.rdQLenPdf::24                      0                       # What read queue length does an incoming req see
system.mem_ctrls.rdQLenPdf::25                      0                       # What read queue length does an incoming req see
system.mem_ctrls.rdQLenPdf::26                      0                       # What read queue length does an incoming req see
system.mem_ctrls.rdQLenPdf::27                      0                       # What read queue length does an incoming req see
system.mem_ctrls.rdQLenPdf::28                      0                       # What read queue length does an incoming req see
system.mem_ctrls.rdQLenPdf::29                      0                       # What read queue length does an incoming req see
system.mem_ctrls.rdQLenPdf::30                      0                       # What read queue length does an incoming req see
system.mem_ctrls.rdQLenPdf::31                      0                       # What read queue length does an incoming req see
system.mem_ctrls.wrQLenPdf::0                       0                       # What write queue length does an incoming req see
system.mem_ctrls.wrQLenPdf::1                       0                       # What write queue length does an incoming req see
system.mem_ctrls.wrQLenPdf::2                       0                       # What write queue length does an incoming req see
system.mem_ctrls.wrQLenPdf::3                       0                       # What write queue length does an incoming req see
system.mem_ctrls.wrQLenPdf::4                       0                       # What write queue length does an incoming req see
system.mem_ctrls.wrQLenPdf::5                       0                       # What write queue length does an incoming req see
system.mem_ctrls.wrQLenPdf::6                       0                       # What write queue length does an incoming req see
system.mem_ctrls.wrQLenPdf::7                       0                       # What write queue length does an incoming req see
system.mem_ctrls.wrQLenPdf::8                       0                       # What write queue length does an incoming req see
system.mem_ctrls.wrQLenPdf::9                       0                       # What write queue length does an incoming req see
system.mem_ctrls.wrQLenPdf::10                      0                       # What write queue length does an incoming req see
system.mem_ctrls.wrQLenPdf::11                      0                       # What write queue length does an incoming req see
system.mem_ctrls.wrQLenPdf::12                      0                       # What write queue length does an incoming req see
system.mem_ctrls.wrQLenPdf::13                      0                       # What write queue length does an incoming req see
system.mem_ctrls.wrQLenPdf::14                      0                       # What write queue length does an incoming req see
system.mem_ctrls.wrQLenPdf::15                      3                       # What write queue length does an incoming req see
system.mem_ctrls.wrQLenPdf::16                      4                       # What write queue length does an incoming req see
system.mem_ctrls.wrQLenPdf::17                     34                       # What write queue length does an incoming req see
system.mem_ctrls.wrQLenPdf::18                     35                       # What write queue length does an incoming req see
system.mem_ctrls.wrQLenPdf::19                     34                       # What write queue length does an incoming req see
system.mem_ctrls.wrQLenPdf::20                     34                       # What write queue length does an incoming req see
system.mem_ctrls.wrQLenPdf::21                     34                       # What write queue length does an incoming req see
system.mem_ctrls.wrQLenPdf::22                     34                       # What write queue length does an incoming req see
system.mem_ctrls.wrQLenPdf::23                     34                       # What write queue length does an incoming req see
system.mem_ctrls.wrQLenPdf::24                     34                       # What write queue length does an incoming req see
system.mem_ctrls.wrQLenPdf::25                     35                       # What write queue length does an incoming req see
system.mem_ctrls.wrQLenPdf::26                     35                       # What write queue length does an incoming req see
system.mem_ctrls.wrQLenPdf::27                     35                       # What write queue length does an incoming req see
system.mem_ctrls.wrQLenPdf::28                     35                       # What write queue length does an incoming req see
system.mem_ctrls.wrQLenPdf::29                     35                       # What write queue length does an incoming req see
system.mem_ctrls.wrQLenPdf::30                     36                       # What write queue length does an incoming req see
system.mem_ctrls.wrQLenPdf::31                     35                       # What write queue length does an incoming req see
system.mem_ctrls.wrQLenPdf::32                     35                       # What write queue length does an incoming req see
system.mem_ctrls.wrQLenPdf::33                      0                       # What write queue length does an incoming req see
system.mem_ctrls.wrQLenPdf::34                      0                       # What write queue length does an incoming req see
system.mem_ctrls.wrQLenPdf::35                      0                       # What write queue length does an incoming req see
system.mem_ctrls.wrQLenPdf::36                      0                       # What write queue length does an incoming req see
system.mem_ctrls.wrQLenPdf::37                      0                       # What write queue length does an incoming req see
system.mem_ctrls.wrQLenPdf::38                      0                       # What write queue length does an incoming req see
system.mem_ctrls.wrQLenPdf::39                      0                       # What write queue length does an incoming req see
system.mem_ctrls.wrQLenPdf::40                      0                       # What write queue length does an incoming req see
system.mem_ctrls.wrQLenPdf::41                      0                       # What write queue length does an incoming req see
system.mem_ctrls.wrQLenPdf::42                      0                       # What write queue length does an incoming req see
system.mem_ctrls.wrQLenPdf::43                      0                       # What write queue length does an incoming req see
system.mem_ctrls.wrQLenPdf::44                      0                       # What write queue length does an incoming req see
system.mem_ctrls.wrQLenPdf::45                      0                       # What write queue length does an incoming req see
system.mem_ctrls.wrQLenPdf::46                      0                       # What write queue length does an incoming req see
system.mem_ctrls.wrQLenPdf::47                      0                       # What write queue length does an incoming req see
system.mem_ctrls.wrQLenPdf::48                      0                       # What write queue length does an incoming req see
system.mem_ctrls.wrQLenPdf::49                      0                       # What write queue length does an incoming req see
system.mem_ctrls.wrQLenPdf::50                      0                       # What write queue length does an incoming req see
system.mem_ctrls.wrQLenPdf::51                      0                       # What write queue length does an incoming req see
system.mem_ctrls.wrQLenPdf::52                      0                       # What write queue length does an incoming req see
system.mem_ctrls.wrQLenPdf::53                      0                       # What write queue length does an incoming req see
system.mem_ctrls.wrQLenPdf::54                      0                       # What write queue length does an incoming req see
system.mem_ctrls.wrQLenPdf::55                      0                       # What write queue length does an incoming req see
system.mem_ctrls.wrQLenPdf::56                      0                       # What write queue length does an incoming req see
system.mem_ctrls.wrQLenPdf::57                      0                       # What write queue length does an incoming req see
system.mem_ctrls.wrQLenPdf::58                      0                       # What write queue length does an incoming req see
system.mem_ctrls.wrQLenPdf::59                      0                       # What write queue length does an incoming req see
system.mem_ctrls.wrQLenPdf::60                      0                       # What write queue length does an incoming req see
system.mem_ctrls.wrQLenPdf::61                      0                       # What write queue length does an incoming req see
system.mem_ctrls.wrQLenPdf::62                      0                       # What write queue length does an incoming req see
system.mem_ctrls.wrQLenPdf::63                      0                       # What write queue length does an incoming req see
system.mem_ctrls.bytesPerActivate::samples        94605                       # Bytes accessed per row activation
system.mem_ctrls.bytesPerActivate::mean    118.249649                       # Bytes accessed per row activation
system.mem_ctrls.bytesPerActivate::gmean   102.207555                       # Bytes accessed per row activation
system.mem_ctrls.bytesPerActivate::stdev    71.425840                       # Bytes accessed per row activation
system.mem_ctrls.bytesPerActivate::0-127        47219     49.91%     49.91% # Bytes accessed per row activation
system.mem_ctrls.bytesPerActivate::128-255        39262     41.50%     91.41% # Bytes accessed per row activation
system.mem_ctrls.bytesPerActivate::256-383         7144      7.55%     98.96% # Bytes accessed per row activation
system.mem_ctrls.bytesPerActivate::384-511          857      0.91%     99.87% # Bytes accessed per row activation
system.mem_ctrls.bytesPerActivate::512-639           89      0.09%     99.96% # Bytes accessed per row activation
system.mem_ctrls.bytesPerActivate::640-767           18      0.02%     99.98% # Bytes accessed per row activation
system.mem_ctrls.bytesPerActivate::768-895            4      0.00%     99.99% # Bytes accessed per row activation
system.mem_ctrls.bytesPerActivate::896-1023            4      0.00%     99.99% # Bytes accessed per row activation
system.mem_ctrls.bytesPerActivate::1024-1151            8      0.01%    100.00% # Bytes accessed per row activation
system.mem_ctrls.bytesPerActivate::total        94605                       # Bytes accessed per row activation
system.mem_ctrls.rdPerTurnAround::samples           35                       # Reads before turning the bus around for writes
system.mem_ctrls.rdPerTurnAround::mean    4970.342857                       # Reads before turning the bus around for writes
system.mem_ctrls.rdPerTurnAround::gmean   4773.566722                       # Reads before turning the bus around for writes
system.mem_ctrls.rdPerTurnAround::stdev   1367.238456                       # Reads before turning the bus around for writes
system.mem_ctrls.rdPerTurnAround::2048-2303            1      2.86%      2.86% # Reads before turning the bus around for writes
system.mem_ctrls.rdPerTurnAround::2560-2815            2      5.71%      8.57% # Reads before turning the bus around for writes
system.mem_ctrls.rdPerTurnAround::2816-3071            1      2.86%     11.43% # Reads before turning the bus around for writes
system.mem_ctrls.rdPerTurnAround::3328-3583            2      5.71%     17.14% # Reads before turning the bus around for writes
system.mem_ctrls.rdPerTurnAround::3584-3839            1      2.86%     20.00% # Reads before turning the bus around for writes
system.mem_ctrls.rdPerTurnAround::3840-4095            1      2.86%     22.86% # Reads before turning the bus around for writes
system.mem_ctrls.rdPerTurnAround::4352-4607            4     11.43%     34.29% # Reads before turning the bus around for writes
system.mem_ctrls.rdPerTurnAround::4608-4863            4     11.43%     45.71% # Reads before turning the bus around for writes
system.mem_ctrls.rdPerTurnAround::4864-5119            2      5.71%     51.43% # Reads before turning the bus around for writes
system.mem_ctrls.rdPerTurnAround::5120-5375            5     14.29%     65.71% # Reads before turning the bus around for writes
system.mem_ctrls.rdPerTurnAround::5376-5631            3      8.57%     74.29% # Reads before turning the bus around for writes
system.mem_ctrls.rdPerTurnAround::5632-5887            3      8.57%     82.86% # Reads before turning the bus around for writes
system.mem_ctrls.rdPerTurnAround::5888-6143            1      2.86%     85.71% # Reads before turning the bus around for writes
system.mem_ctrls.rdPerTurnAround::6144-6399            1      2.86%     88.57% # Reads before turning the bus around for writes
system.mem_ctrls.rdPerTurnAround::6912-7167            1      2.86%     91.43% # Reads before turning the bus around for writes
system.mem_ctrls.rdPerTurnAround::7168-7423            1      2.86%     94.29% # Reads before turning the bus around for writes
system.mem_ctrls.rdPerTurnAround::7680-7935            1      2.86%     97.14% # Reads before turning the bus around for writes
system.mem_ctrls.rdPerTurnAround::7936-8191            1      2.86%    100.00% # Reads before turning the bus around for writes
system.mem_ctrls.rdPerTurnAround::total            35                       # Reads before turning the bus around for writes
system.mem_ctrls.wrPerTurnAround::samples           35                       # Writes before turning the bus around for reads
system.mem_ctrls.wrPerTurnAround::mean      16.200000                       # Writes before turning the bus around for reads
system.mem_ctrls.wrPerTurnAround::gmean     16.190369                       # Writes before turning the bus around for reads
system.mem_ctrls.wrPerTurnAround::stdev      0.584103                       # Writes before turning the bus around for reads
system.mem_ctrls.wrPerTurnAround::16               31     88.57%     88.57% # Writes before turning the bus around for reads
system.mem_ctrls.wrPerTurnAround::17                1      2.86%     91.43% # Writes before turning the bus around for reads
system.mem_ctrls.wrPerTurnAround::18                3      8.57%    100.00% # Writes before turning the bus around for reads
system.mem_ctrls.wrPerTurnAround::total            35                       # Writes before turning the bus around for reads
system.mem_ctrls.totQLat                   4364895500                       # Total ticks spent queuing
system.mem_ctrls.totMemAccLat              7631445500                       # Total ticks spent from burst creation until serviced by the DRAM
system.mem_ctrls.totBusLat                  871080000                       # Total ticks spent in databus transfers
system.mem_ctrls.avgQLat                     25054.50                       # Average queueing delay per DRAM burst
system.mem_ctrls.avgBusLat                    5000.00                       # Average bus latency per DRAM burst
system.mem_ctrls.avgMemAccLat                43804.50                       # Average memory access latency per DRAM burst
system.mem_ctrls.avgRdBW                       730.31                       # Average DRAM read bandwidth in MiByte/s
system.mem_ctrls.avgWrBW                         2.38                       # Average achieved write bandwidth in MiByte/s
system.mem_ctrls.avgRdBWSys                    730.62                       # Average system read bandwidth in MiByte/s
system.mem_ctrls.avgWrBWSys                      2.35                       # Average system write bandwidth in MiByte/s
system.mem_ctrls.peakBW                      12800.00                       # Theoretical peak bandwidth in MiByte/s
system.mem_ctrls.busUtil                         5.72                       # Data bus utilization in percentage
system.mem_ctrls.busUtilRead                     5.71                       # Data bus utilization in percentage for reads
system.mem_ctrls.busUtilWrite                    0.02                       # Data bus utilization in percentage for writes
system.mem_ctrls.avgRdQLen                       1.27                       # Average read queue length when enqueuing
system.mem_ctrls.avgWrQLen                      25.38                       # Average write queue length when enqueuing
system.mem_ctrls.readRowHits                    79722                       # Number of row buffer hits during reads
system.mem_ctrls.writeRowHits                     467                       # Number of row buffer hits during writes
system.mem_ctrls.readRowHitRate                 45.76                       # Row buffer hit rate for reads
system.mem_ctrls.writeRowHitRate                83.24                       # Row buffer hit rate for writes
system.mem_ctrls.avgGap                      87316.00                       # Average gap between requests
system.mem_ctrls.pageHitRate                    45.88                       # Row buffer hit rate, read and write combined
system.mem_ctrls_0.actEnergy                341377680                       # Energy for activate commands per rank (pJ)
system.mem_ctrls_0.preEnergy                181469310                       # Energy for precharge commands per rank (pJ)
system.mem_ctrls_0.readEnergy               630619080                       # Energy for read commands per rank (pJ)
system.mem_ctrls_0.writeEnergy                1920960                       # Energy for write commands per rank (pJ)
system.mem_ctrls_0.refreshEnergy         1205923680.000000                       # Energy for refresh commands per rank (pJ)
system.mem_ctrls_0.actBackEnergy           1547126490                       # Energy for active background per rank (pJ)
system.mem_ctrls_0.preBackEnergy             24952800                       # Energy for precharge background per rank (pJ)
system.mem_ctrls_0.actPowerDownEnergy      5176432770                       # Energy for active power-down per rank (pJ)
system.mem_ctrls_0.prePowerDownEnergy       166751520                       # Energy for precharge power-down per rank (pJ)
system.mem_ctrls_0.selfRefreshEnergy          7841160                       # Energy for self refresh per rank (pJ)
system.mem_ctrls_0.totalEnergy             9284415450                       # Total energy per rank (pJ)
system.mem_ctrls_0.averagePower            608.122498                       # Core power per rank (mW)
system.mem_ctrls_0.totalIdleTime          11807786750                       # Total Idle time Per DRAM Rank
system.mem_ctrls_0.memoryStateTime::IDLE     10932000                       # Time in different power states
system.mem_ctrls_0.memoryStateTime::REF     510144000                       # Time in different power states
system.mem_ctrls_0.memoryStateTime::SREF     23465000                       # Time in different power states
system.mem_ctrls_0.memoryStateTime::PRE_PDN    434311000                       # Time in different power states
system.mem_ctrls_0.memoryStateTime::ACT    2937488500                       # Time in different power states
system.mem_ctrls_0.memoryStateTime::ACT_PDN  11351003625                       # Time in different power states
system.mem_ctrls_1.actEnergy                334023480                       # Energy for activate commands per rank (pJ)
system.mem_ctrls_1.preEnergy                177556665                       # Energy for precharge commands per rank (pJ)
system.mem_ctrls_1.readEnergy               613283160                       # Energy for read commands per rank (pJ)
system.mem_ctrls_1.writeEnergy                1038780                       # Energy for write commands per rank (pJ)
system.mem_ctrls_1.refreshEnergy         1208382240.000000                       # Energy for refresh commands per rank (pJ)
system.mem_ctrls_1.actBackEnergy           1514932320                       # Energy for active background per rank (pJ)
system.mem_ctrls_1.preBackEnergy             25107360                       # Energy for precharge background per rank (pJ)
system.mem_ctrls_1.actPowerDownEnergy      5211801840                       # Energy for active power-down per rank (pJ)
system.mem_ctrls_1.prePowerDownEnergy       169671840                       # Energy for precharge power-down per rank (pJ)
system.mem_ctrls_1.selfRefreshEnergy          5352840                       # Energy for self refresh per rank (pJ)
system.mem_ctrls_1.totalEnergy             9261209955                       # Total energy per rank (pJ)
system.mem_ctrls_1.averagePower            606.602555                       # Core power per rank (mW)
system.mem_ctrls_1.totalIdleTime          11880027250                       # Total Idle time Per DRAM Rank
system.mem_ctrls_1.memoryStateTime::IDLE     11118000                       # Time in different power states
system.mem_ctrls_1.memoryStateTime::REF     511196000                       # Time in different power states
system.mem_ctrls_1.memoryStateTime::SREF      8366750                       # Time in different power states
system.mem_ctrls_1.memoryStateTime::PRE_PDN    441927500                       # Time in different power states
system.mem_ctrls_1.memoryStateTime::ACT    2864997750                       # Time in different power states
system.mem_ctrls_1.memoryStateTime::ACT_PDN  11429738125                       # Time in different power states
system.pwrStateResidencyTicks::UNDEFINED  15267344125                       # Cumulative time (in ticks) in various power states
system.cpu0.branchPred.lookups                1832529                       # Number of BP lookups
system.cpu0.branchPred.condPredicted          1832529                       # Number of conditional branches predicted
system.cpu0.branchPred.condIncorrect            79597                       # Number of conditional branches incorrect
system.cpu0.branchPred.BTBLookups             1439594                       # Number of BTB lookups
system.cpu0.branchPred.BTBHits                      0                       # Number of BTB hits
system.cpu0.branchPred.BTBCorrect                   0                       # Number of correct BTB predictions (this stat may not work properly.
system.cpu0.branchPred.BTBHitPct             0.000000                       # BTB Hit Percentage
system.cpu0.branchPred.usedRAS                  56703                       # Number of times the RAS was used to get a target.
system.cpu0.branchPred.RASInCorrect              8915                       # Number of incorrect RAS predictions.
system.cpu0.branchPred.indirectLookups        1439594                       # Number of indirect predictor lookups.
system.cpu0.branchPred.indirectHits            774202                       # Number of indirect target hits.
system.cpu0.branchPred.indirectMisses          665392                       # Number of indirect misses.
system.cpu0.branchPredindirectMispredicted        30401                       # Number of mispredicted indirect branches.
system.cpu_voltage_domain.voltage                   1                       # Voltage in Volts
system.cpu_clk_domain.clock                       500                       # Clock period in ticks
system.cpu0.dtb.walker.pwrStateResidencyTicks::UNDEFINED  15267344125                       # Cumulative time (in ticks) in various power states
system.cpu0.dtb.rdAccesses                     944356                       # TLB accesses on read requests
system.cpu0.dtb.wrAccesses                      78606                       # TLB accesses on write requests
system.cpu0.dtb.rdMisses                       204334                       # TLB misses on read requests
system.cpu0.dtb.wrMisses                         1360                       # TLB misses on write requests
system.cpu0.apic_clk_domain.clock                8000                       # Clock period in ticks
system.cpu0.interrupts.pwrStateResidencyTicks::UNDEFINED  15267344125                       # Cumulative time (in ticks) in various power states
system.cpu0.itb.walker.pwrStateResidencyTicks::UNDEFINED  15267344125                       # Cumulative time (in ticks) in various power states
system.cpu0.itb.rdAccesses                          0                       # TLB accesses on read requests
system.cpu0.itb.wrAccesses                    1509198                       # TLB accesses on write requests
system.cpu0.itb.rdMisses                            0                       # TLB misses on read requests
system.cpu0.itb.wrMisses                         6426                       # TLB misses on write requests
system.cpu0.workload.numSyscalls                    1                       # Number of system calls
system.cpu0.pwrStateResidencyTicks::ON    15267344125                       # Cumulative time (in ticks) in various power states
system.cpu0.numCycles                        30534688                       # number of cpu cycles simulated
system.cpu0.numWorkItemsStarted                     0                       # number of work items this cpu started
system.cpu0.numWorkItemsCompleted                   0                       # number of work items this cpu completed
system.cpu0.fetch.icacheStallCycles           1545278                       # Number of cycles fetch is stalled on an Icache miss
system.cpu0.fetch.Insts                       5450048                       # Number of instructions fetch has processed
system.cpu0.fetch.Branches                    1832529                       # Number of branches that fetch encountered
system.cpu0.fetch.predictedBranches            830905                       # Number of branches that fetch has predicted taken
system.cpu0.fetch.Cycles                     28789528                       # Number of cycles fetch has run and was not squashing or blocked
system.cpu0.fetch.SquashCycles                 163258                       # Number of cycles fetch has spent squashing
system.cpu0.fetch.TlbCycles                      3015                       # Number of cycles fetch has spent waiting for tlb
system.cpu0.fetch.MiscStallCycles                1496                       # Number of cycles fetch has spent waiting on interrupts, or bad addresses, or out of MSHRs
system.cpu0.fetch.PendingTrapStallCycles        55242                       # Number of stall cycles due to pending traps
system.cpu0.fetch.CacheLines                  1502772                       # Number of cache lines fetched
system.cpu0.fetch.IcacheSquashes                11508                       # Number of outstanding Icache misses that were squashed
system.cpu0.fetch.ItlbSquashes                      9                       # Number of outstanding ITLB misses that were squashed
system.cpu0.fetch.rateDist::samples          30476188                       # Number of instructions fetched each cycle (Total)
system.cpu0.fetch.rateDist::mean             0.359538                       # Number of instructions fetched each cycle (Total)
system.cpu0.fetch.rateDist::stdev            1.503750                       # Number of instructions fetched each cycle (Total)
system.cpu0.fetch.rateDist::underflows              0      0.00%      0.00% # Number of instructions fetched each cycle (Total)
system.cpu0.fetch.rateDist::0                28364578     93.07%     93.07% # Number of instructions fetched each cycle (Total)
system.cpu0.fetch.rateDist::1                   32430      0.11%     93.18% # Number of instructions fetched each cycle (Total)
system.cpu0.fetch.rateDist::2                  735748      2.41%     95.59% # Number of instructions fetched each cycle (Total)
system.cpu0.fetch.rateDist::3                   38487      0.13%     95.72% # Number of instructions fetched each cycle (Total)
system.cpu0.fetch.rateDist::4                  155021      0.51%     96.23% # Number of instructions fetched each cycle (Total)
system.cpu0.fetch.rateDist::5                   76021      0.25%     96.48% # Number of instructions fetched each cycle (Total)
system.cpu0.fetch.rateDist::6                  111785      0.37%     96.84% # Number of instructions fetched each cycle (Total)
system.cpu0.fetch.rateDist::7                   29877      0.10%     96.94% # Number of instructions fetched each cycle (Total)
system.cpu0.fetch.rateDist::8                  932241      3.06%    100.00% # Number of instructions fetched each cycle (Total)
system.cpu0.fetch.rateDist::overflows               0      0.00%    100.00% # Number of instructions fetched each cycle (Total)
system.cpu0.fetch.rateDist::min_value               0                       # Number of instructions fetched each cycle (Total)
system.cpu0.fetch.rateDist::max_value               8                       # Number of instructions fetched each cycle (Total)
system.cpu0.fetch.rateDist::total            30476188                       # Number of instructions fetched each cycle (Total)
system.cpu0.fetch.branchRate                 0.060015                       # Number of branch fetches per cycle
system.cpu0.fetch.rate                       0.178487                       # Number of inst fetches per cycle
system.cpu0.decode.IdleCycles                  777338                       # Number of cycles decode is idle
system.cpu0.decode.BlockedCycles             28214446                       # Number of cycles decode is blocked
system.cpu0.decode.RunCycles                  1013846                       # Number of cycles decode is running
system.cpu0.decode.UnblockCycles               388929                       # Number of cycles decode is unblocking
system.cpu0.decode.SquashCycles                 81629                       # Number of cycles decode is squashing
system.cpu0.decode.DecodedInsts               9237404                       # Number of instructions handled by decode
system.cpu0.rename.SquashCycles                 81629                       # Number of cycles rename is squashing
system.cpu0.rename.IdleCycles                  905512                       # Number of cycles rename is idle
system.cpu0.rename.BlockCycles               26721792                       # Number of cycles rename is blocking
system.cpu0.rename.serializeStallCycles         16247                       # count of cycles rename stalled for serializing inst
system.cpu0.rename.RunCycles                  1187836                       # Number of cycles rename is running
system.cpu0.rename.UnblockCycles              1563172                       # Number of cycles rename is unblocking
system.cpu0.rename.RenamedInsts               8866885                       # Number of instructions processed by rename
system.cpu0.rename.ROBFullEvents                61630                       # Number of times rename has blocked due to ROB full
system.cpu0.rename.IQFullEvents               1294184                       # Number of times rename has blocked due to IQ full
system.cpu0.rename.LQFullEvents                195616                       # Number of times rename has blocked due to LQ full
system.cpu0.rename.SQFullEvents                  2876                       # Number of times rename has blocked due to SQ full
system.cpu0.rename.RenamedOperands           10566406                       # Number of destination operands rename has renamed
system.cpu0.rename.RenameLookups             24509087                       # Number of register rename lookups that rename has made
system.cpu0.rename.int_rename_lookups        11734941                       # Number of integer rename lookups
system.cpu0.rename.fp_rename_lookups            57811                       # Number of floating rename lookups
system.cpu0.rename.CommittedMaps              4200121                       # Number of HB maps that are committed
system.cpu0.rename.UndoneMaps                 6366285                       # Number of HB maps that are undone due to squashing
system.cpu0.rename.serializingInsts               543                       # count of serializing insts renamed
system.cpu0.rename.tempSerializingInsts           614                       # count of temporary serializing insts renamed
system.cpu0.rename.skidInsts                  2441125                       # count of insts added to the skid buffer
system.cpu0.memDep0.insertedLoads             1545645                       # Number of loads inserted to the mem dependence unit.
system.cpu0.memDep0.insertedStores             114576                       # Number of stores inserted to the mem dependence unit.
system.cpu0.memDep0.conflictingLoads             6221                       # Number of conflicting loads.
system.cpu0.memDep0.conflictingStores            6933                       # Number of conflicting stores.
system.cpu0.iq.iqInstsAdded                   8384184                       # Number of instructions added to the IQ (excludes non-spec)
system.cpu0.iq.iqNonSpecInstsAdded               7055                       # Number of non-speculative instructions added to the IQ
system.cpu0.iq.iqInstsIssued                  6238388                       # Number of instructions issued
system.cpu0.iq.iqSquashedInstsIssued            10476                       # Number of squashed instructions issued
system.cpu0.iq.iqSquashedInstsExamined        4902959                       # Number of squashed instructions iterated over during squash; mainly for profiling
system.cpu0.iq.iqSquashedOperandsExamined      9883896                       # Number of squashed operands that are examined and possibly removed from graph
system.cpu0.iq.iqSquashedNonSpecRemoved          7054                       # Number of squashed non-spec instructions that were removed
system.cpu0.iq.issued_per_cycle::samples     30476188                       # Number of insts issued each cycle
system.cpu0.iq.issued_per_cycle::mean        0.204697                       # Number of insts issued each cycle
system.cpu0.iq.issued_per_cycle::stdev       0.823611                       # Number of insts issued each cycle
system.cpu0.iq.issued_per_cycle::underflows            0      0.00%      0.00% # Number of insts issued each cycle
system.cpu0.iq.issued_per_cycle::0           27908447     91.57%     91.57% # Number of insts issued each cycle
system.cpu0.iq.issued_per_cycle::1            1034251      3.39%     94.97% # Number of insts issued each cycle
system.cpu0.iq.issued_per_cycle::2             543227      1.78%     96.75% # Number of insts issued each cycle
system.cpu0.iq.issued_per_cycle::3             375205      1.23%     97.98% # Number of insts issued each cycle
system.cpu0.iq.issued_per_cycle::4             335030      1.10%     99.08% # Number of insts issued each cycle
system.cpu0.iq.issued_per_cycle::5             119378      0.39%     99.47% # Number of insts issued each cycle
system.cpu0.iq.issued_per_cycle::6              95830      0.31%     99.79% # Number of insts issued each cycle
system.cpu0.iq.issued_per_cycle::7              38482      0.13%     99.91% # Number of insts issued each cycle
system.cpu0.iq.issued_per_cycle::8              26338      0.09%    100.00% # Number of insts issued each cycle
system.cpu0.iq.issued_per_cycle::overflows            0      0.00%    100.00% # Number of insts issued each cycle
system.cpu0.iq.issued_per_cycle::min_value            0                       # Number of insts issued each cycle
system.cpu0.iq.issued_per_cycle::max_value            8                       # Number of insts issued each cycle
system.cpu0.iq.issued_per_cycle::total       30476188                       # Number of insts issued each cycle
system.cpu0.iq.fu_full::No_OpClass                  0      0.00%      0.00% # attempts to use FU when none available
system.cpu0.iq.fu_full::IntAlu                  16662     70.36%     70.36% # attempts to use FU when none available
system.cpu0.iq.fu_full::IntMult                     0      0.00%     70.36% # attempts to use FU when none available
system.cpu0.iq.fu_full::IntDiv                      0      0.00%     70.36% # attempts to use FU when none available
system.cpu0.iq.fu_full::FloatAdd                 1603      6.77%     77.13% # attempts to use FU when none available
system.cpu0.iq.fu_full::FloatCmp                    0      0.00%     77.13% # attempts to use FU when none available
system.cpu0.iq.fu_full::FloatCvt                    0      0.00%     77.13% # attempts to use FU when none available
system.cpu0.iq.fu_full::FloatMult                   0      0.00%     77.13% # attempts to use FU when none available
system.cpu0.iq.fu_full::FloatMultAcc                0      0.00%     77.13% # attempts to use FU when none available
system.cpu0.iq.fu_full::FloatDiv                    0      0.00%     77.13% # attempts to use FU when none available
system.cpu0.iq.fu_full::FloatMisc                   0      0.00%     77.13% # attempts to use FU when none available
system.cpu0.iq.fu_full::FloatSqrt                   0      0.00%     77.13% # attempts to use FU when none available
system.cpu0.iq.fu_full::SimdAdd                     0      0.00%     77.13% # attempts to use FU when none available
system.cpu0.iq.fu_full::SimdAddAcc                  0      0.00%     77.13% # attempts to use FU when none available
system.cpu0.iq.fu_full::SimdAlu                     0      0.00%     77.13% # attempts to use FU when none available
system.cpu0.iq.fu_full::SimdCmp                     0      0.00%     77.13% # attempts to use FU when none available
system.cpu0.iq.fu_full::SimdCvt                     0      0.00%     77.13% # attempts to use FU when none available
system.cpu0.iq.fu_full::SimdMisc                    0      0.00%     77.13% # attempts to use FU when none available
system.cpu0.iq.fu_full::SimdMult                    0      0.00%     77.13% # attempts to use FU when none available
system.cpu0.iq.fu_full::SimdMultAcc                 0      0.00%     77.13% # attempts to use FU when none available
system.cpu0.iq.fu_full::SimdShift                   0      0.00%     77.13% # attempts to use FU when none available
system.cpu0.iq.fu_full::SimdShiftAcc                0      0.00%     77.13% # attempts to use FU when none available
system.cpu0.iq.fu_full::SimdSqrt                    0      0.00%     77.13% # attempts to use FU when none available
system.cpu0.iq.fu_full::SimdFloatAdd                0      0.00%     77.13% # attempts to use FU when none available
system.cpu0.iq.fu_full::SimdFloatAlu                0      0.00%     77.13% # attempts to use FU when none available
system.cpu0.iq.fu_full::SimdFloatCmp                0      0.00%     77.13% # attempts to use FU when none available
system.cpu0.iq.fu_full::SimdFloatCvt                0      0.00%     77.13% # attempts to use FU when none available
system.cpu0.iq.fu_full::SimdFloatDiv                0      0.00%     77.13% # attempts to use FU when none available
system.cpu0.iq.fu_full::SimdFloatMisc               0      0.00%     77.13% # attempts to use FU when none available
system.cpu0.iq.fu_full::SimdFloatMult               0      0.00%     77.13% # attempts to use FU when none available
system.cpu0.iq.fu_full::SimdFloatMultAcc            0      0.00%     77.13% # attempts to use FU when none available
system.cpu0.iq.fu_full::SimdFloatSqrt               0      0.00%     77.13% # attempts to use FU when none available
system.cpu0.iq.fu_full::MemRead                  4681     19.77%     96.90% # attempts to use FU when none available
system.cpu0.iq.fu_full::MemWrite                  408      1.72%     98.62% # attempts to use FU when none available
system.cpu0.iq.fu_full::FloatMemRead              281      1.19%     99.81% # attempts to use FU when none available
system.cpu0.iq.fu_full::FloatMemWrite              45      0.19%    100.00% # attempts to use FU when none available
system.cpu0.iq.fu_full::IprAccess                   0      0.00%    100.00% # attempts to use FU when none available
system.cpu0.iq.fu_full::InstPrefetch                0      0.00%    100.00% # attempts to use FU when none available
system.cpu0.iq.FU_type_0::No_OpClass            24601      0.39%      0.39% # Type of FU issued
system.cpu0.iq.FU_type_0::IntAlu              5101019     81.77%     82.16% # Type of FU issued
system.cpu0.iq.FU_type_0::IntMult                1688      0.03%     82.19% # Type of FU issued
system.cpu0.iq.FU_type_0::IntDiv                15127      0.24%     82.43% # Type of FU issued
system.cpu0.iq.FU_type_0::FloatAdd              20858      0.33%     82.77% # Type of FU issued
system.cpu0.iq.FU_type_0::FloatCmp                  0      0.00%     82.77% # Type of FU issued
system.cpu0.iq.FU_type_0::FloatCvt                  0      0.00%     82.77% # Type of FU issued
system.cpu0.iq.FU_type_0::FloatMult                 0      0.00%     82.77% # Type of FU issued
system.cpu0.iq.FU_type_0::FloatMultAcc              0      0.00%     82.77% # Type of FU issued
system.cpu0.iq.FU_type_0::FloatDiv                  0      0.00%     82.77% # Type of FU issued
system.cpu0.iq.FU_type_0::FloatMisc                 0      0.00%     82.77% # Type of FU issued
system.cpu0.iq.FU_type_0::FloatSqrt                 0      0.00%     82.77% # Type of FU issued
system.cpu0.iq.FU_type_0::SimdAdd                   0      0.00%     82.77% # Type of FU issued
system.cpu0.iq.FU_type_0::SimdAddAcc                0      0.00%     82.77% # Type of FU issued
system.cpu0.iq.FU_type_0::SimdAlu                   0      0.00%     82.77% # Type of FU issued
system.cpu0.iq.FU_type_0::SimdCmp                   0      0.00%     82.77% # Type of FU issued
system.cpu0.iq.FU_type_0::SimdCvt                   0      0.00%     82.77% # Type of FU issued
system.cpu0.iq.FU_type_0::SimdMisc                  0      0.00%     82.77% # Type of FU issued
system.cpu0.iq.FU_type_0::SimdMult                  0      0.00%     82.77% # Type of FU issued
system.cpu0.iq.FU_type_0::SimdMultAcc               0      0.00%     82.77% # Type of FU issued
system.cpu0.iq.FU_type_0::SimdShift                 0      0.00%     82.77% # Type of FU issued
system.cpu0.iq.FU_type_0::SimdShiftAcc              0      0.00%     82.77% # Type of FU issued
system.cpu0.iq.FU_type_0::SimdSqrt                  0      0.00%     82.77% # Type of FU issued
system.cpu0.iq.FU_type_0::SimdFloatAdd              0      0.00%     82.77% # Type of FU issued
system.cpu0.iq.FU_type_0::SimdFloatAlu              0      0.00%     82.77% # Type of FU issued
system.cpu0.iq.FU_type_0::SimdFloatCmp              0      0.00%     82.77% # Type of FU issued
system.cpu0.iq.FU_type_0::SimdFloatCvt              0      0.00%     82.77% # Type of FU issued
system.cpu0.iq.FU_type_0::SimdFloatDiv              0      0.00%     82.77% # Type of FU issued
system.cpu0.iq.FU_type_0::SimdFloatMisc             0      0.00%     82.77% # Type of FU issued
system.cpu0.iq.FU_type_0::SimdFloatMult             0      0.00%     82.77% # Type of FU issued
system.cpu0.iq.FU_type_0::SimdFloatMultAcc            0      0.00%     82.77% # Type of FU issued
system.cpu0.iq.FU_type_0::SimdFloatSqrt             0      0.00%     82.77% # Type of FU issued
system.cpu0.iq.FU_type_0::MemRead              985811     15.80%     98.57% # Type of FU issued
system.cpu0.iq.FU_type_0::MemWrite              84490      1.35%     99.92% # Type of FU issued
system.cpu0.iq.FU_type_0::FloatMemRead           4632      0.07%    100.00% # Type of FU issued
system.cpu0.iq.FU_type_0::FloatMemWrite           162      0.00%    100.00% # Type of FU issued
system.cpu0.iq.FU_type_0::IprAccess                 0      0.00%    100.00% # Type of FU issued
system.cpu0.iq.FU_type_0::InstPrefetch              0      0.00%    100.00% # Type of FU issued
system.cpu0.iq.FU_type_0::total               6238388                       # Type of FU issued
system.cpu0.iq.rate                          0.204305                       # Inst issue rate
system.cpu0.iq.fu_busy_cnt                      23680                       # FU busy when requested
system.cpu0.iq.fu_busy_rate                  0.003796                       # FU busy rate (busy events/executed inst)
system.cpu0.iq.int_inst_queue_reads          42933551                       # Number of integer instruction queue reads
system.cpu0.iq.int_inst_queue_writes         13244978                       # Number of integer instruction queue writes
system.cpu0.iq.int_inst_queue_wakeup_accesses      5972714                       # Number of integer instruction queue wakeup accesses
system.cpu0.iq.fp_inst_queue_reads              53569                       # Number of floating instruction queue reads
system.cpu0.iq.fp_inst_queue_writes             49226                       # Number of floating instruction queue writes
system.cpu0.iq.fp_inst_queue_wakeup_accesses        23143                       # Number of floating instruction queue wakeup accesses
system.cpu0.iq.vec_inst_queue_reads                 0                       # Number of vector instruction queue reads
system.cpu0.iq.vec_inst_queue_writes                0                       # Number of vector instruction queue writes
system.cpu0.iq.vec_inst_queue_wakeup_accesses            0                       # Number of vector instruction queue wakeup accesses
system.cpu0.iq.int_alu_accesses               6209872                       # Number of integer alu accesses
system.cpu0.iq.fp_alu_accesses                  27595                       # Number of floating point alu accesses
system.cpu0.iq.vec_alu_accesses                     0                       # Number of vector alu accesses
system.cpu0.iew.lsq.thread0.forwLoads            6579                       # Number of loads that had data forwarded from stores
system.cpu0.iew.lsq.thread0.invAddrLoads            0                       # Number of loads ignored due to an invalid address
system.cpu0.iew.lsq.thread0.squashedLoads       909405                       # Number of loads squashed
system.cpu0.iew.lsq.thread0.ignoredResponses          247                       # Number of memory responses ignored because the instruction is squashed
system.cpu0.iew.lsq.thread0.memOrderViolation            6                       # Number of memory ordering violations
system.cpu0.iew.lsq.thread0.squashedStores        70692                       # Number of stores squashed
system.cpu0.iew.lsq.thread0.invAddrSwpfs            0                       # Number of software prefetches ignored due to an invalid address
system.cpu0.iew.lsq.thread0.blockedLoads            0                       # Number of blocked loads due to partial load-store forwarding
system.cpu0.iew.lsq.thread0.rescheduledLoads           57                       # Number of loads that were rescheduled
system.cpu0.iew.lsq.thread0.cacheBlocked         1995                       # Number of times an access to memory failed due to the cache being blocked
system.cpu0.iew.iewIdleCycles                       0                       # Number of cycles IEW is idle
system.cpu0.iew.iewSquashCycles                 81629                       # Number of cycles IEW is squashing
system.cpu0.iew.iewBlockCycles               24615316                       # Number of cycles IEW is blocking
system.cpu0.iew.iewUnblockCycles               302731                       # Number of cycles IEW is unblocking
system.cpu0.iew.iewDispatchedInsts            8391239                       # Number of instructions dispatched to IQ
system.cpu0.iew.iewDispSquashedInsts             5228                       # Number of squashed instructions skipped by dispatch
system.cpu0.iew.iewDispLoadInsts              1545645                       # Number of dispatched load instructions
system.cpu0.iew.iewDispStoreInsts              114576                       # Number of dispatched store instructions
system.cpu0.iew.iewDispNonSpecInsts              2666                       # Number of dispatched non-speculative instructions
system.cpu0.iew.iewIQFullEvents                 20595                       # Number of times the IQ has become full, causing a stall
system.cpu0.iew.iewLSQFullEvents                51215                       # Number of times the LSQ has become full, causing a stall
system.cpu0.iew.memOrderViolationEvents             6                       # Number of memory order violations
system.cpu0.iew.predictedTakenIncorrect         40418                       # Number of branches that were predicted taken incorrectly
system.cpu0.iew.predictedNotTakenIncorrect        51336                       # Number of branches that were predicted not taken incorrectly
system.cpu0.iew.branchMispredicts               91754                       # Number of branch mispredicts detected at execute
system.cpu0.iew.iewExecutedInsts              6116312                       # Number of executed instructions
system.cpu0.iew.iewExecLoadInsts               943919                       # Number of load instructions executed
system.cpu0.iew.iewExecSquashedInsts           122076                       # Number of squashed instructions skipped in execute
system.cpu0.iew.exec_swp                            0                       # number of swp insts executed
system.cpu0.iew.exec_nop                            0                       # number of nop insts executed
system.cpu0.iew.exec_refs                     1022497                       # number of memory reference insts executed
system.cpu0.iew.exec_branches                  764868                       # Number of branches executed
system.cpu0.iew.exec_stores                     78578                       # Number of stores executed
system.cpu0.iew.exec_rate                    0.200307                       # Inst execution rate
system.cpu0.iew.wb_sent                       6019232                       # cumulative count of insts sent to commit
system.cpu0.iew.wb_count                      5995857                       # cumulative count of insts written-back
system.cpu0.iew.wb_producers                  4339102                       # num instructions producing a value
system.cpu0.iew.wb_consumers                  7086782                       # num instructions consuming a value
system.cpu0.iew.wb_rate                      0.196362                       # insts written-back per cycle
system.cpu0.iew.wb_fanout                    0.612281                       # average fanout of values written-back
system.cpu0.commit.commitSquashedInsts        4903746                       # The number of squashed insts skipped by commit
system.cpu0.commit.commitNonSpecStalls              1                       # The number of times commit has been forced to stall to communicate backwards
system.cpu0.commit.branchMispredicts            81625                       # The number of times a branch was mispredicted
system.cpu0.commit.committed_per_cycle::samples     29776114                       # Number of insts commited each cycle
system.cpu0.commit.committed_per_cycle::mean     0.117150                       # Number of insts commited each cycle
system.cpu0.commit.committed_per_cycle::stdev     0.636939                       # Number of insts commited each cycle
system.cpu0.commit.committed_per_cycle::underflows            0      0.00%      0.00% # Number of insts commited each cycle
system.cpu0.commit.committed_per_cycle::0     28287141     95.00%     95.00% # Number of insts commited each cycle
system.cpu0.commit.committed_per_cycle::1       669832      2.25%     97.25% # Number of insts commited each cycle
system.cpu0.commit.committed_per_cycle::2       176937      0.59%     97.84% # Number of insts commited each cycle
system.cpu0.commit.committed_per_cycle::3       452297      1.52%     99.36% # Number of insts commited each cycle
system.cpu0.commit.committed_per_cycle::4        66659      0.22%     99.59% # Number of insts commited each cycle
system.cpu0.commit.committed_per_cycle::5        40301      0.14%     99.72% # Number of insts commited each cycle
system.cpu0.commit.committed_per_cycle::6         9080      0.03%     99.75% # Number of insts commited each cycle
system.cpu0.commit.committed_per_cycle::7         5874      0.02%     99.77% # Number of insts commited each cycle
system.cpu0.commit.committed_per_cycle::8        67993      0.23%    100.00% # Number of insts commited each cycle
system.cpu0.commit.committed_per_cycle::overflows            0      0.00%    100.00% # Number of insts commited each cycle
system.cpu0.commit.committed_per_cycle::min_value            0                       # Number of insts commited each cycle
system.cpu0.commit.committed_per_cycle::max_value            8                       # Number of insts commited each cycle
system.cpu0.commit.committed_per_cycle::total     29776114                       # Number of insts commited each cycle
system.cpu0.commit.committedInsts             1747787                       # Number of instructions committed
system.cpu0.commit.committedOps               3488280                       # Number of ops (including micro ops) committed
system.cpu0.commit.swp_count                        0                       # Number of s/w prefetches committed
system.cpu0.commit.refs                        680124                       # Number of memory references committed
system.cpu0.commit.loads                       636240                       # Number of loads committed
system.cpu0.commit.membars                          0                       # Number of memory barriers committed
system.cpu0.commit.branches                    614406                       # Number of branches committed
system.cpu0.commit.vec_insts                        0                       # Number of committed Vector instructions.
system.cpu0.commit.fp_insts                     18332                       # Number of committed floating point instructions.
system.cpu0.commit.int_insts                  3470170                       # Number of committed integer instructions.
system.cpu0.commit.function_calls                7754                       # Number of function calls committed.
system.cpu0.commit.op_class_0::No_OpClass         5385      0.15%      0.15% # Class of committed instruction
system.cpu0.commit.op_class_0::IntAlu         2773763     79.52%     79.67% # Class of committed instruction
system.cpu0.commit.op_class_0::IntMult            310      0.01%     79.68% # Class of committed instruction
system.cpu0.commit.op_class_0::IntDiv           13170      0.38%     80.06% # Class of committed instruction
system.cpu0.commit.op_class_0::FloatAdd         15528      0.45%     80.50% # Class of committed instruction
system.cpu0.commit.op_class_0::FloatCmp             0      0.00%     80.50% # Class of committed instruction
system.cpu0.commit.op_class_0::FloatCvt             0      0.00%     80.50% # Class of committed instruction
system.cpu0.commit.op_class_0::FloatMult            0      0.00%     80.50% # Class of committed instruction
system.cpu0.commit.op_class_0::FloatMultAcc            0      0.00%     80.50% # Class of committed instruction
system.cpu0.commit.op_class_0::FloatDiv             0      0.00%     80.50% # Class of committed instruction
system.cpu0.commit.op_class_0::FloatMisc            0      0.00%     80.50% # Class of committed instruction
system.cpu0.commit.op_class_0::FloatSqrt            0      0.00%     80.50% # Class of committed instruction
system.cpu0.commit.op_class_0::SimdAdd              0      0.00%     80.50% # Class of committed instruction
system.cpu0.commit.op_class_0::SimdAddAcc            0      0.00%     80.50% # Class of committed instruction
system.cpu0.commit.op_class_0::SimdAlu              0      0.00%     80.50% # Class of committed instruction
system.cpu0.commit.op_class_0::SimdCmp              0      0.00%     80.50% # Class of committed instruction
system.cpu0.commit.op_class_0::SimdCvt              0      0.00%     80.50% # Class of committed instruction
system.cpu0.commit.op_class_0::SimdMisc             0      0.00%     80.50% # Class of committed instruction
system.cpu0.commit.op_class_0::SimdMult             0      0.00%     80.50% # Class of committed instruction
system.cpu0.commit.op_class_0::SimdMultAcc            0      0.00%     80.50% # Class of committed instruction
system.cpu0.commit.op_class_0::SimdShift            0      0.00%     80.50% # Class of committed instruction
system.cpu0.commit.op_class_0::SimdShiftAcc            0      0.00%     80.50% # Class of committed instruction
system.cpu0.commit.op_class_0::SimdSqrt             0      0.00%     80.50% # Class of committed instruction
system.cpu0.commit.op_class_0::SimdFloatAdd            0      0.00%     80.50% # Class of committed instruction
system.cpu0.commit.op_class_0::SimdFloatAlu            0      0.00%     80.50% # Class of committed instruction
system.cpu0.commit.op_class_0::SimdFloatCmp            0      0.00%     80.50% # Class of committed instruction
system.cpu0.commit.op_class_0::SimdFloatCvt            0      0.00%     80.50% # Class of committed instruction
system.cpu0.commit.op_class_0::SimdFloatDiv            0      0.00%     80.50% # Class of committed instruction
system.cpu0.commit.op_class_0::SimdFloatMisc            0      0.00%     80.50% # Class of committed instruction
system.cpu0.commit.op_class_0::SimdFloatMult            0      0.00%     80.50% # Class of committed instruction
system.cpu0.commit.op_class_0::SimdFloatMultAcc            0      0.00%     80.50% # Class of committed instruction
system.cpu0.commit.op_class_0::SimdFloatSqrt            0      0.00%     80.50% # Class of committed instruction
system.cpu0.commit.op_class_0::MemRead         633436     18.16%     98.66% # Class of committed instruction
system.cpu0.commit.op_class_0::MemWrite         43884      1.26%     99.92% # Class of committed instruction
system.cpu0.commit.op_class_0::FloatMemRead         2804      0.08%    100.00% # Class of committed instruction
system.cpu0.commit.op_class_0::FloatMemWrite            0      0.00%    100.00% # Class of committed instruction
system.cpu0.commit.op_class_0::IprAccess            0      0.00%    100.00% # Class of committed instruction
system.cpu0.commit.op_class_0::InstPrefetch            0      0.00%    100.00% # Class of committed instruction
system.cpu0.commit.op_class_0::total          3488280                       # Class of committed instruction
system.cpu0.commit.bw_lim_events                67993                       # number cycles where commit BW limit reached
system.cpu0.rob.rob_reads                    38100147                       # The number of ROB reads
system.cpu0.rob.rob_writes                   17486659                       # The number of ROB writes
system.cpu0.timesIdled                            505                       # Number of times that the entire CPU went into an idle state and unscheduled itself
system.cpu0.idleCycles                          58500                       # Total number of cycles that the CPU has spent unscheduled due to idling
system.cpu0.committedInsts                    1747787                       # Number of Instructions Simulated
system.cpu0.committedOps                      3488280                       # Number of Ops (including micro ops) Simulated
system.cpu0.cpi                             17.470486                       # CPI: Cycles Per Instruction
system.cpu0.cpi_total                       17.470486                       # CPI: Total CPI of All Threads
system.cpu0.ipc                              0.057239                       # IPC: Instructions Per Cycle
system.cpu0.ipc_total                        0.057239                       # IPC: Total IPC of All Threads
system.cpu0.int_regfile_reads                 6433081                       # number of integer regfile reads
system.cpu0.int_regfile_writes                5162658                       # number of integer regfile writes
system.cpu0.fp_regfile_reads                    40575                       # number of floating regfile reads
system.cpu0.fp_regfile_writes                   20251                       # number of floating regfile writes
system.cpu0.cc_regfile_reads                  4033796                       # number of cc regfile reads
system.cpu0.cc_regfile_writes                 1753131                       # number of cc regfile writes
system.cpu0.misc_regfile_reads                3183439                       # number of misc regfile reads
system.cpu0.dcache.tags.pwrStateResidencyTicks::UNDEFINED  15267344125                       # Cumulative time (in ticks) in various power states
system.cpu0.dcache.tags.replacements           330760                       # number of replacements
system.cpu0.dcache.tags.tagsinuse                1024                       # Cycle average of tags in use
system.cpu0.dcache.tags.total_refs             403171                       # Total number of references to valid blocks.
system.cpu0.dcache.tags.sampled_refs           330760                       # Sample count of references to valid blocks.
system.cpu0.dcache.tags.avg_refs             1.218923                       # Average number of references to valid blocks.
system.cpu0.dcache.tags.warmup_cycle                0                       # Cycle when the warmup percentage was hit.
system.cpu0.dcache.tags.occ_blocks::cpu0.data         1024                       # Average occupied blocks per requestor
system.cpu0.dcache.tags.occ_percent::cpu0.data            1                       # Average percentage of cache occupancy
system.cpu0.dcache.tags.occ_percent::total            1                       # Average percentage of cache occupancy
system.cpu0.dcache.tags.occ_task_id_blocks::1024         1024                       # Occupied blocks per task id
system.cpu0.dcache.tags.age_task_id_blocks_1024::0          510                       # Occupied blocks per task id
system.cpu0.dcache.tags.age_task_id_blocks_1024::1          510                       # Occupied blocks per task id
system.cpu0.dcache.tags.age_task_id_blocks_1024::2            4                       # Occupied blocks per task id
system.cpu0.dcache.tags.occ_task_id_percent::1024            1                       # Percentage of cache occupancy per task id
system.cpu0.dcache.tags.tag_accesses          4230068                       # Number of tag accesses
system.cpu0.dcache.tags.data_accesses         4230068                       # Number of data accesses
system.cpu0.dcache.pwrStateResidencyTicks::UNDEFINED  15267344125                       # Cumulative time (in ticks) in various power states
system.cpu0.dcache.ReadReq_hits::cpu0.data       361746                       # number of ReadReq hits
system.cpu0.dcache.ReadReq_hits::total         361746                       # number of ReadReq hits
system.cpu0.dcache.WriteReq_hits::cpu0.data        42529                       # number of WriteReq hits
system.cpu0.dcache.WriteReq_hits::total         42529                       # number of WriteReq hits
system.cpu0.dcache.demand_hits::cpu0.data       404275                       # number of demand (read+write) hits
system.cpu0.dcache.demand_hits::total          404275                       # number of demand (read+write) hits
system.cpu0.dcache.overall_hits::cpu0.data       404275                       # number of overall hits
system.cpu0.dcache.overall_hits::total         404275                       # number of overall hits
system.cpu0.dcache.ReadReq_misses::cpu0.data       569197                       # number of ReadReq misses
system.cpu0.dcache.ReadReq_misses::total       569197                       # number of ReadReq misses
system.cpu0.dcache.WriteReq_misses::cpu0.data         1355                       # number of WriteReq misses
system.cpu0.dcache.WriteReq_misses::total         1355                       # number of WriteReq misses
system.cpu0.dcache.demand_misses::cpu0.data       570552                       # number of demand (read+write) misses
system.cpu0.dcache.demand_misses::total        570552                       # number of demand (read+write) misses
system.cpu0.dcache.overall_misses::cpu0.data       570552                       # number of overall misses
system.cpu0.dcache.overall_misses::total       570552                       # number of overall misses
system.cpu0.dcache.ReadReq_miss_latency::cpu0.data  33321958000                       # number of ReadReq miss cycles
system.cpu0.dcache.ReadReq_miss_latency::total  33321958000                       # number of ReadReq miss cycles
system.cpu0.dcache.WriteReq_miss_latency::cpu0.data     56811500                       # number of WriteReq miss cycles
system.cpu0.dcache.WriteReq_miss_latency::total     56811500                       # number of WriteReq miss cycles
system.cpu0.dcache.demand_miss_latency::cpu0.data  33378769500                       # number of demand (read+write) miss cycles
system.cpu0.dcache.demand_miss_latency::total  33378769500                       # number of demand (read+write) miss cycles
system.cpu0.dcache.overall_miss_latency::cpu0.data  33378769500                       # number of overall miss cycles
system.cpu0.dcache.overall_miss_latency::total  33378769500                       # number of overall miss cycles
system.cpu0.dcache.ReadReq_accesses::cpu0.data       930943                       # number of ReadReq accesses(hits+misses)
system.cpu0.dcache.ReadReq_accesses::total       930943                       # number of ReadReq accesses(hits+misses)
system.cpu0.dcache.WriteReq_accesses::cpu0.data        43884                       # number of WriteReq accesses(hits+misses)
[...]
system.l2.ReadExReq_miss_rate::cpu0.data     0.306953                       # miss rate for ReadExReq accesses
system.l2.ReadExReq_miss_rate::total         0.306953                       # miss rate for ReadExReq accesses
system.l2.ReadCleanReq_miss_rate::cpu0.inst     0.333333                       # miss rate for ReadCleanReq accesses
system.l2.ReadCleanReq_miss_rate::total      0.333333                       # miss rate for ReadCleanReq accesses
system.l2.ReadSharedReq_miss_rate::cpu0.data     0.527841                       # miss rate for ReadSharedReq accesses
system.l2.ReadSharedReq_miss_rate::total     0.527841                       # miss rate for ReadSharedReq accesses
system.l2.demand_miss_rate::cpu0.inst        0.333333                       # miss rate for demand accesses
system.l2.demand_miss_rate::cpu0.data        0.526938                       # miss rate for demand accesses
system.l2.demand_miss_rate::total            0.526936                       # miss rate for demand accesses
system.l2.overall_miss_rate::cpu0.inst       0.333333                       # miss rate for overall accesses
system.l2.overall_miss_rate::cpu0.data       0.526938                       # miss rate for overall accesses
system.l2.overall_miss_rate::total           0.526936                       # miss rate for overall accesses
system.l2.ReadExReq_avg_miss_latency::cpu0.data 103057.831325                       # average ReadExReq miss latency
system.l2.ReadExReq_avg_miss_latency::total 103057.831325                       # average ReadExReq miss latency
system.l2.ReadCleanReq_avg_miss_latency::cpu0.inst       103500                       # average ReadCleanReq miss latency
system.l2.ReadCleanReq_avg_miss_latency::total       103500                       # average ReadCleanReq miss latency
system.l2.ReadSharedReq_avg_miss_latency::cpu0.data 95358.064702                       # average ReadSharedReq miss latency
system.l2.ReadSharedReq_avg_miss_latency::total 95358.064702                       # average ReadSharedReq miss latency
system.l2.demand_avg_miss_latency::cpu0.inst       103500                       # average overall miss latency
system.l2.demand_avg_miss_latency::cpu0.data 95376.398531                       # average overall miss latency
system.l2.demand_avg_miss_latency::total 95376.445141                       # average overall miss latency
system.l2.overall_avg_miss_latency::cpu0.inst       103500                       # average overall miss latency
system.l2.overall_avg_miss_latency::cpu0.data 95376.398531                       # average overall miss latency
system.l2.overall_avg_miss_latency::total 95376.445141                       # average overall miss latency
system.l2.blocked_cycles::no_mshrs                  0                       # number of cycles access was blocked
system.l2.blocked_cycles::no_targets                0                       # number of cycles access was blocked
system.l2.blocked::no_mshrs                         0                       # number of cycles access was blocked
system.l2.blocked::no_targets                       0                       # number of cycles access was blocked
system.l2.avg_blocked_cycles::no_mshrs            nan                       # average number of cycles each access was blocked
system.l2.avg_blocked_cycles::no_targets          nan                       # average number of cycles each access was blocked
system.l2.writebacks::writebacks                  561                       # number of writebacks
system.l2.writebacks::total                       561                       # number of writebacks
system.l2.ReadExReq_mshr_misses::cpu0.data          415                       # number of ReadExReq MSHR misses
system.l2.ReadExReq_mshr_misses::total            415                       # number of ReadExReq MSHR misses
system.l2.ReadCleanReq_mshr_misses::cpu0.inst            1                       # number of ReadCleanReq MSHR misses
system.l2.ReadCleanReq_mshr_misses::total            1                       # number of ReadCleanReq MSHR misses
system.l2.ReadSharedReq_mshr_misses::cpu0.data       173875                       # number of ReadSharedReq MSHR misses
system.l2.ReadSharedReq_mshr_misses::total       173875                       # number of ReadSharedReq MSHR misses
system.l2.demand_mshr_misses::cpu0.inst             1                       # number of demand (read+write) MSHR misses
system.l2.demand_mshr_misses::cpu0.data        174290                       # number of demand (read+write) MSHR misses
system.l2.demand_mshr_misses::total            174291                       # number of demand (read+write) MSHR misses
system.l2.overall_mshr_misses::cpu0.inst            1                       # number of overall MSHR misses
system.l2.overall_mshr_misses::cpu0.data       174290                       # number of overall MSHR misses
system.l2.overall_mshr_misses::total           174291                       # number of overall MSHR misses
system.l2.ReadExReq_mshr_miss_latency::cpu0.data     38619000                       # number of ReadExReq MSHR miss cycles
system.l2.ReadExReq_mshr_miss_latency::total     38619000                       # number of ReadExReq MSHR miss cycles
system.l2.ReadCleanReq_mshr_miss_latency::cpu0.inst        93500                       # number of ReadCleanReq MSHR miss cycles
system.l2.ReadCleanReq_mshr_miss_latency::total        93500                       # number of ReadCleanReq MSHR miss cycles
system.l2.ReadSharedReq_mshr_miss_latency::cpu0.data  14841643500                       # number of ReadSharedReq MSHR miss cycles
system.l2.ReadSharedReq_mshr_miss_latency::total  14841643500                       # number of ReadSharedReq MSHR miss cycles
system.l2.demand_mshr_miss_latency::cpu0.inst        93500                       # number of demand (read+write) MSHR miss cycles
system.l2.demand_mshr_miss_latency::cpu0.data  14880262500                       # number of demand (read+write) MSHR miss cycles
system.l2.demand_mshr_miss_latency::total  14880356000                       # number of demand (read+write) MSHR miss cycles
system.l2.overall_mshr_miss_latency::cpu0.inst        93500                       # number of overall MSHR miss cycles
system.l2.overall_mshr_miss_latency::cpu0.data  14880262500                       # number of overall MSHR miss cycles
system.l2.overall_mshr_miss_latency::total  14880356000                       # number of overall MSHR miss cycles
system.l2.ReadExReq_mshr_miss_rate::cpu0.data     0.306953                       # mshr miss rate for ReadExReq accesses
system.l2.ReadExReq_mshr_miss_rate::total     0.306953                       # mshr miss rate for ReadExReq accesses
system.l2.ReadCleanReq_mshr_miss_rate::cpu0.inst     0.333333                       # mshr miss rate for ReadCleanReq accesses
system.l2.ReadCleanReq_mshr_miss_rate::total     0.333333                       # mshr miss rate for ReadCleanReq accesses
system.l2.ReadSharedReq_mshr_miss_rate::cpu0.data     0.527841                       # mshr miss rate for ReadSharedReq accesses
system.l2.ReadSharedReq_mshr_miss_rate::total     0.527841                       # mshr miss rate for ReadSharedReq accesses
system.l2.demand_mshr_miss_rate::cpu0.inst     0.333333                       # mshr miss rate for demand accesses
system.l2.demand_mshr_miss_rate::cpu0.data     0.526938                       # mshr miss rate for demand accesses
system.l2.demand_mshr_miss_rate::total       0.526936                       # mshr miss rate for demand accesses
system.l2.overall_mshr_miss_rate::cpu0.inst     0.333333                       # mshr miss rate for overall accesses
system.l2.overall_mshr_miss_rate::cpu0.data     0.526938                       # mshr miss rate for overall accesses
system.l2.overall_mshr_miss_rate::total      0.526936                       # mshr miss rate for overall accesses
system.l2.ReadExReq_avg_mshr_miss_latency::cpu0.data 93057.831325                       # average ReadExReq mshr miss latency
system.l2.ReadExReq_avg_mshr_miss_latency::total 93057.831325                       # average ReadExReq mshr miss latency
system.l2.ReadCleanReq_avg_mshr_miss_latency::cpu0.inst        93500                       # average ReadCleanReq mshr miss latency
system.l2.ReadCleanReq_avg_mshr_miss_latency::total        93500                       # average ReadCleanReq mshr miss latency
system.l2.ReadSharedReq_avg_mshr_miss_latency::cpu0.data 85358.122214                       # average ReadSharedReq mshr miss latency
system.l2.ReadSharedReq_avg_mshr_miss_latency::total 85358.122214                       # average ReadSharedReq mshr miss latency
system.l2.demand_avg_mshr_miss_latency::cpu0.inst        93500                       # average overall mshr miss latency
system.l2.demand_avg_mshr_miss_latency::cpu0.data 85376.455907                       # average overall mshr miss latency
system.l2.demand_avg_mshr_miss_latency::total 85376.502516                       # average overall mshr miss latency
system.l2.overall_avg_mshr_miss_latency::cpu0.inst        93500                       # average overall mshr miss latency
system.l2.overall_avg_mshr_miss_latency::cpu0.data 85376.455907                       # average overall mshr miss latency
system.l2.overall_avg_mshr_miss_latency::total 85376.502516                       # average overall mshr miss latency
system.membus.snoop_filter.tot_requests        348582                       # Total number of requests made to the snoop filter.
system.membus.snoop_filter.hit_single_requests       174293                       # Number of requests hitting in the snoop filter with a single holder of the requested data.
system.membus.snoop_filter.hit_multi_requests            0                       # Number of requests hitting in the snoop filter with multiple (>1) holders of the requested data.
system.membus.snoop_filter.tot_snoops               0                       # Total number of snoops made to the snoop filter.
system.membus.snoop_filter.hit_single_snoops            0                       # Number of snoops hitting in the snoop filter with a single holder of the requested data.
system.membus.snoop_filter.hit_multi_snoops            0                       # Number of snoops hitting in the snoop filter with multiple (>1) holders of the requested data.
system.membus.pwrStateResidencyTicks::UNDEFINED  15267344125                       # Cumulative time (in ticks) in various power states
system.membus.trans_dist::ReadResp             173875                       # Transaction distribution
system.membus.trans_dist::WritebackDirty          561                       # Transaction distribution
system.membus.trans_dist::CleanEvict           173730                       # Transaction distribution
system.membus.trans_dist::ReadExReq               415                       # Transaction distribution
system.membus.trans_dist::ReadExResp              415                       # Transaction distribution
system.membus.trans_dist::ReadSharedReq        173876                       # Transaction distribution
system.membus.pkt_count_system.l2.mem_side::system.mem_ctrls.port       522872                       # Packet count per connected master and slave (bytes)
system.membus.pkt_count_system.l2.mem_side::total       522872                       # Packet count per connected master and slave (bytes)
system.membus.pkt_count::total                 522872                       # Packet count per connected master and slave (bytes)
system.membus.pkt_size_system.l2.mem_side::system.mem_ctrls.port     11190464                       # Cumulative packet size per connected master and slave (bytes)
system.membus.pkt_size_system.l2.mem_side::total     11190464                       # Cumulative packet size per connected master and slave (bytes)
system.membus.pkt_size::total                11190464                       # Cumulative packet size per connected master and slave (bytes)
system.membus.snoops                                0                       # Total snoops (count)
system.membus.snoopTraffic                          0                       # Total snoop traffic (bytes)
system.membus.snoop_fanout::samples            174291                       # Request fanout histogram
system.membus.snoop_fanout::mean                    0                       # Request fanout histogram
system.membus.snoop_fanout::stdev                   0                       # Request fanout histogram
system.membus.snoop_fanout::underflows              0      0.00%      0.00% # Request fanout histogram
system.membus.snoop_fanout::0                  174291    100.00%    100.00% # Request fanout histogram
system.membus.snoop_fanout::1                       0      0.00%    100.00% # Request fanout histogram
system.membus.snoop_fanout::overflows               0      0.00%    100.00% # Request fanout histogram
system.membus.snoop_fanout::min_value               0                       # Request fanout histogram
system.membus.snoop_fanout::max_value               0                       # Request fanout histogram
system.membus.snoop_fanout::total              174291                       # Request fanout histogram
system.membus.reqLayer8.occupancy           410892000                       # Layer occupancy (ticks)
system.membus.reqLayer8.utilization               2.7                       # Layer utilization (%)
system.membus.respLayer1.occupancy          946097750                       # Layer occupancy (ticks)
system.membus.respLayer1.utilization              6.2                       # Layer utilization (%)
system.tol2bus.snoop_filter.tot_requests       661526                       # Total number of requests made to the snoop filter.
system.tol2bus.snoop_filter.hit_single_requests       330764                       # Number of requests hitting in the snoop filter with a single holder of the requested data.
system.tol2bus.snoop_filter.hit_multi_requests          843                       # Number of requests hitting in the snoop filter with multiple (>1) holders of the requested data.
system.tol2bus.snoop_filter.tot_snoops              2                       # Total number of snoops made to the snoop filter.
system.tol2bus.snoop_filter.hit_single_snoops            2                       # Number of snoops hitting in the snoop filter with a single holder of the requested data.
system.tol2bus.snoop_filter.hit_multi_snoops            0                       # Number of snoops hitting in the snoop filter with multiple (>1) holders of the requested data.
system.tol2bus.pwrStateResidencyTicks::UNDEFINED  15267344125                       # Cumulative time (in ticks) in various power states
system.tol2bus.trans_dist::ReadResp            329411                       # Transaction distribution
system.tol2bus.trans_dist::WritebackDirty         4341                       # Transaction distribution
system.tol2bus.trans_dist::WritebackClean            3                       # Transaction distribution
system.tol2bus.trans_dist::CleanEvict          500711                       # Transaction distribution
system.tol2bus.trans_dist::ReadExReq             1352                       # Transaction distribution
system.tol2bus.trans_dist::ReadExResp            1352                       # Transaction distribution
system.tol2bus.trans_dist::ReadCleanReq             3                       # Transaction distribution
system.tol2bus.trans_dist::ReadSharedReq       329408                       # Transaction distribution
system.tol2bus.pkt_count_system.cpu0.icache.mem_side::system.l2.cpu_side            9                       # Packet count per connected master and slave (bytes)
system.tol2bus.pkt_count_system.cpu0.dcache.mem_side::system.l2.cpu_side       992280                       # Packet count per connected master and slave (bytes)
system.tol2bus.pkt_count::total                992289                       # Packet count per connected master and slave (bytes)
system.tol2bus.pkt_size_system.cpu0.icache.mem_side::system.l2.cpu_side          384                       # Cumulative packet size per connected master and slave (bytes)
system.tol2bus.pkt_size_system.cpu0.dcache.mem_side::system.l2.cpu_side     21410560                       # Cumulative packet size per connected master and slave (bytes)
system.tol2bus.pkt_size::total               21410944                       # Cumulative packet size per connected master and slave (bytes)
system.tol2bus.snoops                          174292                       # Total snoops (count)
system.tol2bus.snoopTraffic                     35904                       # Total snoop traffic (bytes)
system.tol2bus.snoop_fanout::samples           505055                       # Request fanout histogram
system.tol2bus.snoop_fanout::mean            0.001675                       # Request fanout histogram
system.tol2bus.snoop_fanout::stdev           0.040893                       # Request fanout histogram
system.tol2bus.snoop_fanout::underflows             0      0.00%      0.00% # Request fanout histogram
system.tol2bus.snoop_fanout::0                 504209     99.83%     99.83% # Request fanout histogram
system.tol2bus.snoop_fanout::1                    846      0.17%    100.00% # Request fanout histogram
system.tol2bus.snoop_fanout::2                      0      0.00%    100.00% # Request fanout histogram
system.tol2bus.snoop_fanout::3                      0      0.00%    100.00% # Request fanout histogram
system.tol2bus.snoop_fanout::4                      0      0.00%    100.00% # Request fanout histogram
system.tol2bus.snoop_fanout::5                      0      0.00%    100.00% # Request fanout histogram
system.tol2bus.snoop_fanout::6                      0      0.00%    100.00% # Request fanout histogram
system.tol2bus.snoop_fanout::7                      0      0.00%    100.00% # Request fanout histogram
system.tol2bus.snoop_fanout::8                      0      0.00%    100.00% # Request fanout histogram
system.tol2bus.snoop_fanout::9                      0      0.00%    100.00% # Request fanout histogram
system.tol2bus.snoop_fanout::10                     0      0.00%    100.00% # Request fanout histogram
system.tol2bus.snoop_fanout::11                     0      0.00%    100.00% # Request fanout histogram
system.tol2bus.snoop_fanout::12                     0      0.00%    100.00% # Request fanout histogram
system.tol2bus.snoop_fanout::13                     0      0.00%    100.00% # Request fanout histogram
system.tol2bus.snoop_fanout::14                     0      0.00%    100.00% # Request fanout histogram
system.tol2bus.snoop_fanout::15                     0      0.00%    100.00% # Request fanout histogram
system.tol2bus.snoop_fanout::16                     0      0.00%    100.00% # Request fanout histogram
system.tol2bus.snoop_fanout::overflows              0      0.00%    100.00% # Request fanout histogram
system.tol2bus.snoop_fanout::min_value              0                       # Request fanout histogram
system.tol2bus.snoop_fanout::max_value              1                       # Request fanout histogram
system.tol2bus.snoop_fanout::total             505055                       # Request fanout histogram
system.tol2bus.reqLayer0.occupancy          334546000                       # Layer occupancy (ticks)
system.tol2bus.reqLayer0.utilization              2.2                       # Layer utilization (%)
system.tol2bus.respLayer0.occupancy              4500                       # Layer occupancy (ticks)
system.tol2bus.respLayer0.utilization             0.0                       # Layer utilization (%)
system.tol2bus.respLayer1.occupancy         496140000                       # Layer occupancy (ticks)
system.tol2bus.respLayer1.utilization             3.2                       # Layer utilization (%)

---------- End Simulation Statistics   ----------
