
---------- Begin Simulation Statistics ----------
sim_seconds                                  0.015267                       # Number of seconds simulated
sim_ticks                                 15267344125                       # Number of ticks simulated
final_tick                               7893216912625                       # Number of ticks from beginning of simulation (restored from checkpoints and never reset)
sim_freq                                 1000000000000                       # Frequency of simulated ticks
host_inst_rate                               79481872                       # Simulator instruction rate (inst/s)
host_op_rate                                148242240                       # Simulator op (including micro ops) rate (op/s)
host_tick_rate                              199292940                       # Simulator tick rate (ticks/s)
host_mem_usage                                2332532                       # Number of bytes of host memory used
host_seconds                                    76.61                       # Real time elapsed on the host
sim_insts                                  6088908964                       # Number of instructions simulated
sim_ops                                   11356472645                       # Number of ops (including micro ops) simulated
system.voltage_domain.voltage                       1                       # Voltage in Volts
system.clk_domain.clock                          1000                       # Clock period in ticks
system.mem_ctrls.pwrStateResidencyTicks::UNDEFINED  15267344125                       # Cumulative time (in ticks) in various power states
system.mem_ctrls.bytes_read::cpu0.data       12140672                       # Number of bytes read from this memory
system.mem_ctrls.bytes_read::total           12140672                       # Number of bytes read from this memory
system.mem_ctrls.bytes_written::writebacks        19456                       # Number of bytes written to this memory
system.mem_ctrls.bytes_written::total           19456                       # Number of bytes written to this memory
system.mem_ctrls.num_reads::cpu0.data          189698                       # Number of read requests responded to by this memory
system.mem_ctrls.num_reads::total              189698                       # Number of read requests responded to by this memory
system.mem_ctrls.num_writes::writebacks           304                       # Number of write requests responded to by this memory
system.mem_ctrls.num_writes::total                304                       # Number of write requests responded to by this memory
system.mem_ctrls.bw_read::cpu0.data         795205237                       # Total read bandwidth from this memory (bytes/s)
system.mem_ctrls.bw_read::total             795205237                       # Total read bandwidth from this memory (bytes/s)
system.mem_ctrls.bw_write::writebacks         1274354                       # Write bandwidth from this memory (bytes/s)
system.mem_ctrls.bw_write::total              1274354                       # Write bandwidth from this memory (bytes/s)
system.mem_ctrls.bw_total::writebacks         1274354                       # Total bandwidth to/from this memory (bytes/s)
system.mem_ctrls.bw_total::cpu0.data        795205237                       # Total bandwidth to/from this memory (bytes/s)
system.mem_ctrls.bw_total::total            796479591                       # Total bandwidth to/from this memory (bytes/s)
system.mem_ctrls.readReqs                      189699                       # Number of read requests accepted
system.mem_ctrls.writeReqs                        304                       # Number of write requests accepted
system.mem_ctrls.readBursts                    189699                       # Number of DRAM read bursts, including those serviced by the write queue
system.mem_ctrls.writeBursts                      304                       # Number of DRAM write bursts, including those merged in the write queue
system.mem_ctrls.bytesReadDRAM               12137984                       # Total number of bytes read from DRAM
system.mem_ctrls.bytesReadWrQ                    2752                       # Total number of bytes read from write queue
system.mem_ctrls.bytesWritten                   19456                       # Total number of bytes written to DRAM
system.mem_ctrls.bytesReadSys                12140736                       # Total read bytes from the system interface side
system.mem_ctrls.bytesWrittenSys                19456                       # Total written bytes from the system interface side
system.mem_ctrls.servicedByWrQ                     43                       # Number of DRAM read bursts serviced by the write queue
system.mem_ctrls.mergedWrBursts                     0                       # Number of DRAM write bursts merged with an existing one
system.mem_ctrls.neitherReadNorWriteReqs            0                       # Number of requests that are neither read nor write
system.mem_ctrls.perBankRdBursts::0             11537                       # Per bank write bursts
system.mem_ctrls.perBankRdBursts::1             11553                       # Per bank write bursts
system.mem_ctrls.perBankRdBursts::2             11652                       # Per bank write bursts
system.mem_ctrls.perBankRdBursts::3             12085                       # Per bank write bursts
system.mem_ctrls.perBankRdBursts::4             12218                       # Per bank write bursts
system.mem_ctrls.perBankRdBursts::5             12160                       # Per bank write bursts
system.mem_ctrls.perBankRdBursts::6             12096                       # Per bank write bursts
system.mem_ctrls.perBankRdBursts::7             11847                       # Per bank write bursts
system.mem_ctrls.perBankRdBursts::8             11806                       # Per bank write bursts
system.mem_ctrls.perBankRdBursts::9             11881                       # Per bank write bursts
system.mem_ctrls.perBankRdBursts::10            11899                       # Per bank write bursts
system.mem_ctrls.perBankRdBursts::11            11915                       # Per bank write bursts
system.mem_ctrls.perBankRdBursts::12            11580                       # Per bank write bursts
system.mem_ctrls.perBankRdBursts::13            11660                       # Per bank write bursts
system.mem_ctrls.perBankRdBursts::14            11635                       # Per bank write bursts
system.mem_ctrls.perBankRdBursts::15            12132                       # Per bank write bursts
system.mem_ctrls.perBankWrBursts::0                 0                       # Per bank write bursts
system.mem_ctrls.perBankWrBursts::1                 0                       # Per bank write bursts
system.mem_ctrls.perBankWrBursts::2                 0                       # Per bank write bursts
system.mem_ctrls.perBankWrBursts::3                77                       # Per bank write bursts
system.mem_ctrls.perBankWrBursts::4                 6                       # Per bank write bursts
system.mem_ctrls.perBankWrBursts::5                 0                       # Per bank write bursts
system.mem_ctrls.perBankWrBursts::6                 0                       # Per bank write bursts
system.mem_ctrls.perBankWrBursts::7                 0                       # Per bank write bursts
system.mem_ctrls.perBankWrBursts::8                 0                       # Per bank write bursts
system.mem_ctrls.perBankWrBursts::9                 0                       # Per bank write bursts
system.mem_ctrls.perBankWrBursts::10               37                       # Per bank write bursts
system.mem_ctrls.perBankWrBursts::11              125                       # Per bank write bursts
system.mem_ctrls.perBankWrBursts::12               51                       # Per bank write bursts
system.mem_ctrls.perBankWrBursts::13                0                       # Per bank write bursts
system.mem_ctrls.perBankWrBursts::14                0                       # Per bank write bursts
system.mem_ctrls.perBankWrBursts::15                8                       # Per bank write bursts
system.mem_ctrls.numRdRetry                         0                       # Number of times read queue was full causing retry
system.mem_ctrls.numWrRetry                         0                       # Number of times write queue was full causing retry
system.mem_ctrls.totGap                   15267326000                       # Total gap between requests
system.mem_ctrls.readPktSize::0                     0                       # Read request sizes (log2)
system.mem_ctrls.readPktSize::1                     0                       # Read request sizes (log2)
system.mem_ctrls.readPktSize::2                     0                       # Read request sizes (log2)
system.mem_ctrls.readPktSize::3                     0                       # Read request sizes (log2)
system.mem_ctrls.readPktSize::4                     0                       # Read request sizes (log2)
system.mem_ctrls.readPktSize::5                     0                       # Read request sizes (log2)
system.mem_ctrls.readPktSize::6                189699                       # Read request sizes (log2)
system.mem_ctrls.writePktSize::0                    0                       # Write request sizes (log2)
system.mem_ctrls.writePktSize::1                    0                       # Write request sizes (log2)
system.mem_ctrls.writePktSize::2                    0                       # Write request sizes (log2)
system.mem_ctrls.writePktSize::3                    0                       # Write request sizes (log2)
system.mem_ctrls.writePktSize::4                    0                       # Write request sizes (log2)
system.mem_ctrls.writePktSize::5                    0                       # Write request sizes (log2)
system.mem_ctrls.writePktSize::6                  304                       # Write request sizes (log2)
system.mem_ctrls.rdQLenPdf::0                  144317                       # What read queue length does an incoming req see
system.mem_ctrls.rdQLenPdf::1                   42450                       # What read queue length does an incoming req see
system.mem_ctrls.rdQLenPdf::2                    2832                       # What read queue length does an incoming req see
system.mem_ctrls.rdQLenPdf::3                      57                       # What read queue length does an incoming req see
system.mem_ctrls.rdQLenPdf::4                       0                       # What read queue length does an incoming req see
system.mem_ctrls.rdQLenPdf::5                       0                       # What read queue length does an incoming req see
system.mem_ctrls.rdQLenPdf::6                       0                       # What read queue length does an incoming req see
system.mem_ctrls.rdQLenPdf::7                       0                       # What read queue length does an incoming req see
system.mem_ctrls.rdQLenPdf::8                       0                       # What read queue length does an incoming req see
system.mem_ctrls.rdQLenPdf::9                       0                       # What read queue length does an incoming req see
system.mem_ctrls.rdQLenPdf::10                      0                       # What read queue length does an incoming req see
system.mem_ctrls.rdQLenPdf::11                      0                       # What read queue length does an incoming req see
system.mem_ctrls.rdQLenPdf::12                      0                       # What read queue length does an incoming req see
system.mem_ctrls.rdQLenPdf::13                      0                       # What read queue length does an incoming req see
system.mem_ctrls.rdQLenPdf::14                      0                       # What read queue length does an incoming req see
system.mem_ctrls.rdQLenPdf::15                      0                       # What read queue length does an incoming req see
system.mem_ctrls.rdQLenPdf::16                      0                       # What read queue length does an incoming req see
system.mem_ctrls.rdQLenPdf::17                      0                       # What read queue length does an incoming req see
system.mem_ctrls.rdQLenPdf::18                      0                       # What read queue length does an incoming req see
system.mem_ctrls.rdQLenPdf::19                      0                       # What read queue length does an incoming req see
system.mem_ctrls.rdQLenPdf::20                      0                       # What read queue length does an incoming req see
system.mem_ctrls.rdQLenPdf::21                      0                       # What read queue length does an incoming req see
system.mem_ctrls.rdQLenPdf::22                      0                       # What read queue length does an incoming req see
system.mem_ctrls.rdQLenPdf::23                      0                       # What read queue length does an incoming req see
system.mem_ctrls.rdQLenPdf::24                      0                       # What read queue length does an incoming req see
system.mem_ctrls.rdQLenPdf::25                      0                       # What read queue length does an incoming req see
system.mem_ctrls.rdQLenPdf::26                      0                       # What read queue length does an incoming req see
system.mem_ctrls.rdQLenPdf::27                      0                       # What read queue length does an incoming req see
system.mem_ctrls.rdQLenPdf::28                      0                       # What read queue length does an incoming req see
system.mem_ctrls.rdQLenPdf::29                      0                       # What read queue length does an incoming req see
system.mem_ctrls.rdQLenPdf::30                      0                       # What read queue length does an incoming req see
system.mem_ctrls.rdQLenPdf::31                      0                       # What read queue length does an incoming req see
system.mem_ctrls.wrQLenPdf::0                       0                       # What write queue length does an incoming req see
system.mem_ctrls.wrQLenPdf::1                       0                       # What write queue length does an incoming req see
system.mem_ctrls.wrQLenPdf::2                       0                       # What write queue length does an incoming req see
system.mem_ctrls.wrQLenPdf::3                       0                       # What write queue length does an incoming req see
system.mem_ctrls.wrQLenPdf::4                       0                       # What write queue length does an incoming req see
system.mem_ctrls.wrQLenPdf::5                       0                       # What write queue length does an incoming req see
system.mem_ctrls.wrQLenPdf::6                       0                       # What write queue length does an incoming req see
system.mem_ctrls.wrQLenPdf::7                       0                       # What write queue length does an incoming req see
system.mem_ctrls.wrQLenPdf::8                       0                       # What write queue length does an incoming req see
system.mem_ctrls.wrQLenPdf::9                       0                       # What write queue length does an incoming req see
system.mem_ctrls.wrQLenPdf::10                      0                       # What write queue length does an incoming req see
system.mem_ctrls.wrQLenPdf::11                      0                       # What write queue length does an incoming req see
system.mem_ctrls.wrQLenPdf::12                      0                       # What write queue length does an incoming req see
system.mem_ctrls.wrQLenPdf::13                      0                       # What write queue length does an incoming req see
system.mem_ctrls.wrQLenPdf::14                      0                       # What write queue length does an incoming req see
system.mem_ctrls.wrQLenPdf::15                      0                       # What write queue length does an incoming req see
system.mem_ctrls.wrQLenPdf::16                      0                       # What write queue length does an incoming req see
system.mem_ctrls.wrQLenPdf::17                     19                       # What write queue length does an incoming req see
system.mem_ctrls.wrQLenPdf::18                     19                       # What write queue length does an incoming req see
system.mem_ctrls.wrQLenPdf::19                     19                       # What write queue length does an incoming req see
system.mem_ctrls.wrQLenPdf::20                     19                       # What write queue length does an incoming req see
system.mem_ctrls.wrQLenPdf::21                     19                       # What write queue length does an incoming req see
system.mem_ctrls.wrQLenPdf::22                     19                       # What write queue length does an incoming req see
system.mem_ctrls.wrQLenPdf::23                     19                       # What write queue length does an incoming req see
system.mem_ctrls.wrQLenPdf::24                     19                       # What write queue length does an incoming req see
system.mem_ctrls.wrQLenPdf::25                     19                       # What write queue length does an incoming req see
system.mem_ctrls.wrQLenPdf::26                     19                       # What write queue length does an incoming req see
system.mem_ctrls.wrQLenPdf::27                     19                       # What write queue length does an incoming req see
system.mem_ctrls.wrQLenPdf::28                     19                       # What write queue length does an incoming req see
system.mem_ctrls.wrQLenPdf::29                     19                       # What write queue length does an incoming req see
system.mem_ctrls.wrQLenPdf::30                     19                       # What write queue length does an incoming req see
system.mem_ctrls.wrQLenPdf::31                     19                       # What write queue length does an incoming req see
system.mem_ctrls.wrQLenPdf::32                     19                       # What write queue length does an incoming req see
system.mem_ctrls.wrQLenPdf::33                      0                       # What write queue length does an incoming req see
system.mem_ctrls.wrQLenPdf::34                      0                       # What write queue length does an incoming req see
system.mem_ctrls.wrQLenPdf::35                      0                       # What write queue length does an incoming req see
system.mem_ctrls.wrQLenPdf::36                      0                       # What write queue length does an incoming req see
system.mem_ctrls.wrQLenPdf::37                      0                       # What write queue length does an incoming req see
system.mem_ctrls.wrQLenPdf::38                      0                       # What write queue length does an incoming req see
system.mem_ctrls.wrQLenPdf::39                      0                       # What write queue length does an incoming req see
system.mem_ctrls.wrQLenPdf::40                      0                       # What write queue length does an incoming req see
system.mem_ctrls.wrQLenPdf::41                      0                       # What write queue length does an incoming req see
system.mem_ctrls.wrQLenPdf::42                      0                       # What write queue length does an incoming req see
system.mem_ctrls.wrQLenPdf::43                      0                       # What write queue length does an incoming req see
system.mem_ctrls.wrQLenPdf::44                      0                       # What write queue length does an incoming req see
system.mem_ctrls.wrQLenPdf::45                      0                       # What write queue length does an incoming req see
system.mem_ctrls.wrQLenPdf::46                      0                       # What write queue length does an incoming req see
system.mem_ctrls.wrQLenPdf::47                      0                       # What write queue length does an incoming req see
system.mem_ctrls.wrQLenPdf::48                      0                       # What write queue length does an incoming req see
system.mem_ctrls.wrQLenPdf::49                      0                       # What write queue length does an incoming req see
system.mem_ctrls.wrQLenPdf::50                      0                       # What write queue length does an incoming req see
system.mem_ctrls.wrQLenPdf::51                      0                       # What write queue length does an incoming req see
system.mem_ctrls.wrQLenPdf::52                      0                       # What write queue length does an incoming req see
system.mem_ctrls.wrQLenPdf::53                      0                       # What write queue length does an incoming req see
system.mem_ctrls.wrQLenPdf::54                      0                       # What write queue length does an incoming req see
system.mem_ctrls.wrQLenPdf::55                      0                       # What write queue length does an incoming req see
system.mem_ctrls.wrQLenPdf::56                      0                       # What write queue length does an incoming req see
system.mem_ctrls.wrQLenPdf::57                      0                       # What write queue length does an incoming req see
system.mem_ctrls.wrQLenPdf::58                      0                       # What write queue length does an incoming req see
system.mem_ctrls.wrQLenPdf::59                      0                       # What write queue length does an incoming req see
system.mem_ctrls.wrQLenPdf::60                      0                       # What write queue length does an incoming req see
system.mem_ctrls.wrQLenPdf::61                      0                       # What write queue length does an incoming req see
system.mem_ctrls.wrQLenPdf::62                      0                       # What write queue length does an incoming req see
system.mem_ctrls.wrQLenPdf::63                      0                       # What write queue length does an incoming req see
system.mem_ctrls.bytesPerActivate::samples        97679                       # Bytes accessed per row activation
system.mem_ctrls.bytesPerActivate::mean    124.450087                       # Bytes accessed per row activation
system.mem_ctrls.bytesPerActivate::gmean   107.200532                       # Bytes accessed per row activation
system.mem_ctrls.bytesPerActivate::stdev    74.593865                       # Bytes accessed per row activation
system.mem_ctrls.bytesPerActivate::0-127        44524     45.58%     45.58% # Bytes accessed per row activation
system.mem_ctrls.bytesPerActivate::128-255        43252     44.28%     89.86% # Bytes accessed per row activation
system.mem_ctrls.bytesPerActivate::256-383         8608      8.81%     98.67% # Bytes accessed per row activation
system.mem_ctrls.bytesPerActivate::384-511         1134      1.16%     99.84% # Bytes accessed per row activation
system.mem_ctrls.bytesPerActivate::512-639          131      0.13%     99.97% # Bytes accessed per row activation
system.mem_ctrls.bytesPerActivate::640-767           17      0.02%     99.99% # Bytes accessed per row activation
system.mem_ctrls.bytesPerActivate::768-895            8      0.01%     99.99% # Bytes accessed per row activation
system.mem_ctrls.bytesPerActivate::896-1023            1      0.00%    100.00% # Bytes accessed per row activation
system.mem_ctrls.bytesPerActivate::1024-1151            4      0.00%    100.00% # Bytes accessed per row activation
system.mem_ctrls.bytesPerActivate::total        97679                       # Bytes accessed per row activation
system.mem_ctrls.rdPerTurnAround::samples           19                       # Reads before turning the bus around for writes
system.mem_ctrls.rdPerTurnAround::mean   10110.736842                       # Reads before turning the bus around for writes
system.mem_ctrls.rdPerTurnAround::gmean   9907.319026                       # Reads before turning the bus around for writes
system.mem_ctrls.rdPerTurnAround::stdev   1990.541268                       # Reads before turning the bus around for writes
system.mem_ctrls.rdPerTurnAround::6144-6655            1      5.26%      5.26% # Reads before turning the bus around for writes
system.mem_ctrls.rdPerTurnAround::6656-7167            1      5.26%     10.53% # Reads before turning the bus around for writes
system.mem_ctrls.rdPerTurnAround::7168-7679            2     10.53%     21.05% # Reads before turning the bus around for writes
system.mem_ctrls.rdPerTurnAround::8704-9215            2     10.53%     31.58% # Reads before turning the bus around for writes
system.mem_ctrls.rdPerTurnAround::9728-10239            2     10.53%     42.11% # Reads before turning the bus around for writes
system.mem_ctrls.rdPerTurnAround::10240-10751            4     21.05%     63.16% # Reads before turning the bus around for writes
system.mem_ctrls.rdPerTurnAround::10752-11263            1      5.26%     68.42% # Reads before turning the bus around for writes
system.mem_ctrls.rdPerTurnAround::11264-11775            1      5.26%     73.68% # Reads before turning the bus around for writes
system.mem_ctrls.rdPerTurnAround::11776-12287            2     10.53%     84.21% # Reads before turning the bus around for writes
system.mem_ctrls.rdPerTurnAround::12288-12799            3     15.79%    100.00% # Reads before turning the bus around for writes
system.mem_ctrls.rdPerTurnAround::total            19                       # Reads before turning the bus around for writes
system.mem_ctrls.wrPerTurnAround::samples           19                       # Writes before turning the bus around for reads
system.mem_ctrls.wrPerTurnAround::mean             16                       # Writes before turning the bus around for reads
system.mem_ctrls.wrPerTurnAround::gmean     16.000000                       # Writes before turning the bus around for reads
system.mem_ctrls.wrPerTurnAround::16               19    100.00%    100.00% # Writes before turning the bus around for reads
system.mem_ctrls.wrPerTurnAround::total            19                       # Writes before turning the bus around for reads
system.mem_ctrls.totQLat                   4672072250                       # Total ticks spent queuing
system.mem_ctrls.totMemAccLat              8228122250                       # Total ticks spent from burst creation until serviced by the DRAM
system.mem_ctrls.totBusLat                  948280000                       # Total ticks spent in databus transfers
system.mem_ctrls.avgQLat                     24634.46                       # Average queueing delay per DRAM burst
system.mem_ctrls.avgBusLat                    5000.00                       # Average bus latency per DRAM burst
system.mem_ctrls.avgMemAccLat                43384.46                       # Average memory access latency per DRAM burst
system.mem_ctrls.avgRdBW                       795.03                       # Average DRAM read bandwidth in MiByte/s
system.mem_ctrls.avgWrBW                         1.27                       # Average achieved write bandwidth in MiByte/s
system.mem_ctrls.avgRdBWSys                    795.21                       # Average system read bandwidth in MiByte/s
system.mem_ctrls.avgWrBWSys                      1.27                       # Average system write bandwidth in MiByte/s
system.mem_ctrls.peakBW                      12800.00                       # Theoretical peak bandwidth in MiByte/s
system.mem_ctrls.busUtil                         6.22                       # Data bus utilization in percentage
system.mem_ctrls.busUtilRead                     6.21                       # Data bus utilization in percentage for reads
system.mem_ctrls.busUtilWrite                    0.01                       # Data bus utilization in percentage for writes
system.mem_ctrls.avgRdQLen                       1.31                       # Average read queue length when enqueuing
system.mem_ctrls.avgWrQLen                      25.70                       # Average write queue length when enqueuing
system.mem_ctrls.readRowHits                    92018                       # Number of row buffer hits during reads
system.mem_ctrls.writeRowHits                     256                       # Number of row buffer hits during writes
system.mem_ctrls.readRowHitRate                 48.52                       # Row buffer hit rate for reads
system.mem_ctrls.writeRowHitRate                84.21                       # Row buffer hit rate for writes
system.mem_ctrls.avgGap                      80353.08                       # Average gap between requests
system.mem_ctrls.pageHitRate                    48.58                       # Row buffer hit rate, read and write combined
system.mem_ctrls_0.actEnergy                349495860                       # Energy for activate commands per rank (pJ)
system.mem_ctrls_0.preEnergy                185761455                       # Energy for precharge commands per rank (pJ)
system.mem_ctrls_0.readEnergy               679356720                       # Energy for read commands per rank (pJ)
system.mem_ctrls_0.writeEnergy                 433260                       # Energy for write commands per rank (pJ)
system.mem_ctrls_0.refreshEnergy         1205923680.000000                       # Energy for refresh commands per rank (pJ)
system.mem_ctrls_0.actBackEnergy           1613138190                       # Energy for active background per rank (pJ)
system.mem_ctrls_0.preBackEnergy             24753120                       # Energy for precharge background per rank (pJ)
system.mem_ctrls_0.actPowerDownEnergy      5147681970                       # Energy for active power-down per rank (pJ)
system.mem_ctrls_0.prePowerDownEnergy       133494720                       # Energy for precharge power-down per rank (pJ)
system.mem_ctrls_0.selfRefreshEnergy          9692700                       # Energy for self refresh per rank (pJ)
system.mem_ctrls_0.totalEnergy             9349834425                       # Total energy per rank (pJ)
system.mem_ctrls_0.averagePower            612.407394                       # Core power per rank (mW)
system.mem_ctrls_0.totalIdleTime          11664564750                       # Total Idle time Per DRAM Rank
system.mem_ctrls_0.memoryStateTime::IDLE     10644000                       # Time in different power states
system.mem_ctrls_0.memoryStateTime::REF     510150000                       # Time in different power states
system.mem_ctrls_0.memoryStateTime::SREF     28654750                       # Time in different power states
system.mem_ctrls_0.memoryStateTime::PRE_PDN    347807250                       # Time in different power states
system.mem_ctrls_0.memoryStateTime::ACT    3081382000                       # Time in different power states
system.mem_ctrls_0.memoryStateTime::ACT_PDN  11288706125                       # Time in different power states
system.mem_ctrls_1.actEnergy                347982180                       # Energy for activate commands per rank (pJ)
system.mem_ctrls_1.preEnergy                184930350                       # Energy for precharge commands per rank (pJ)
system.mem_ctrls_1.readEnergy               674779980                       # Energy for read commands per rank (pJ)
system.mem_ctrls_1.writeEnergy                1153620                       # Energy for write commands per rank (pJ)
system.mem_ctrls_1.refreshEnergy         1205923680.000000                       # Energy for refresh commands per rank (pJ)
system.mem_ctrls_1.actBackEnergy           1606112370                       # Energy for active background per rank (pJ)
system.mem_ctrls_1.preBackEnergy             25035840                       # Energy for precharge background per rank (pJ)
system.mem_ctrls_1.actPowerDownEnergy      5144864460                       # Energy for active power-down per rank (pJ)
system.mem_ctrls_1.prePowerDownEnergy       146493120                       # Energy for precharge power-down per rank (pJ)
system.mem_ctrls_1.selfRefreshEnergy          6020460                       # Energy for self refresh per rank (pJ)
system.mem_ctrls_1.totalEnergy             9343296060                       # Total energy per rank (pJ)
system.mem_ctrls_1.averagePower            611.979136                       # Core power per rank (mW)
system.mem_ctrls_1.totalIdleTime          11680232500                       # Total Idle time Per DRAM Rank
system.mem_ctrls_1.memoryStateTime::IDLE     11082000                       # Time in different power states
system.mem_ctrls_1.memoryStateTime::REF     510144000                       # Time in different power states
system.mem_ctrls_1.memoryStateTime::SREF     15881500                       # Time in different power states
system.mem_ctrls_1.memoryStateTime::PRE_PDN    381576750                       # Time in different power states
system.mem_ctrls_1.memoryStateTime::ACT    3065885625                       # Time in different power states
system.mem_ctrls_1.memoryStateTime::ACT_PDN  11282774250                       # Time in different power states
system.pwrStateResidencyTicks::UNDEFINED  15267344125                       # Cumulative time (in ticks) in various power states
system.cpu0.branchPred.lookups                1557823                       # Number of BP lookups
system.cpu0.branchPred.condPredicted          1557823                       # Number of conditional branches predicted
system.cpu0.branchPred.condIncorrect            57997                       # Number of conditional branches incorrect
system.cpu0.branchPred.BTBLookups             1149527                       # Number of BTB lookups
system.cpu0.branchPred.BTBHits                      0                       # Number of BTB hits
system.cpu0.branchPred.BTBCorrect                   0                       # Number of correct BTB predictions (this stat may not work properly.
system.cpu0.branchPred.BTBHitPct             0.000000                       # BTB Hit Percentage
system.cpu0.branchPred.usedRAS                  35017                       # Number of times the RAS was used to get a target.
system.cpu0.branchPred.RASInCorrect              5544                       # Number of incorrect RAS predictions.
system.cpu0.branchPred.indirectLookups        1149527                       # Number of indirect predictor lookups.
system.cpu0.branchPred.indirectHits            681827                       # Number of indirect target hits.
system.cpu0.branchPred.indirectMisses          467700                       # Number of indirect misses.
system.cpu0.branchPredindirectMispredicted        14898                       # Number of mispredicted indirect branches.
system.cpu_voltage_domain.voltage                   1                       # Voltage in Volts
system.cpu_clk_domain.clock                       500                       # Clock period in ticks
system.cpu0.dtb.walker.pwrStateResidencyTicks::UNDEFINED  15267344125                       # Cumulative time (in ticks) in various power states
system.cpu0.dtb.rdAccesses                     728622                       # TLB accesses on read requests
system.cpu0.dtb.wrAccesses                      38701                       # TLB accesses on write requests
system.cpu0.dtb.rdMisses                       162337                       # TLB misses on read requests
system.cpu0.dtb.wrMisses                          705                       # TLB misses on write requests
system.cpu0.apic_clk_domain.clock                8000                       # Clock period in ticks
system.cpu0.interrupts.pwrStateResidencyTicks::UNDEFINED  15267344125                       # Cumulative time (in ticks) in various power states
system.cpu0.itb.walker.pwrStateResidencyTicks::UNDEFINED  15267344125                       # Cumulative time (in ticks) in various power states
system.cpu0.itb.rdAccesses                          0                       # TLB accesses on read requests
system.cpu0.itb.wrAccesses                    1336999                       # TLB accesses on write requests
system.cpu0.itb.rdMisses                            0                       # TLB misses on read requests
system.cpu0.itb.wrMisses                         2610                       # TLB misses on write requests
system.cpu0.workload.numSyscalls                    0                       # Number of system calls
system.cpu0.pwrStateResidencyTicks::ON    15267344125                       # Cumulative time (in ticks) in various power states
system.cpu0.numCycles                        30534688                       # number of cpu cycles simulated
system.cpu0.numWorkItemsStarted                     0                       # number of work items this cpu started
system.cpu0.numWorkItemsCompleted                   0                       # number of work items this cpu completed
system.cpu0.fetch.icacheStallCycles           1363510                       # Number of cycles fetch is stalled on an Icache miss
system.cpu0.fetch.Insts                       4430507                       # Number of instructions fetch has processed
system.cpu0.fetch.Branches                    1557823                       # Number of branches that fetch encountered
system.cpu0.fetch.predictedBranches            716844                       # Number of branches that fetch has predicted taken
system.cpu0.fetch.Cycles                     29062725                       # Number of cycles fetch has run and was not squashing or blocked
system.cpu0.fetch.SquashCycles                 117740                       # Number of cycles fetch has spent squashing
system.cpu0.fetch.TlbCycles                       586                       # Number of cycles fetch has spent waiting for tlb
system.cpu0.fetch.MiscStallCycles                 615                       # Number of cycles fetch has spent waiting on interrupts, or bad addresses, or out of MSHRs
system.cpu0.fetch.PendingTrapStallCycles        23100                       # Number of stall cycles due to pending traps
system.cpu0.fetch.CacheLines                  1334389                       # Number of cache lines fetched
system.cpu0.fetch.IcacheSquashes                 5635                       # Number of outstanding Icache misses that were squashed
system.cpu0.fetch.ItlbSquashes                      4                       # Number of outstanding ITLB misses that were squashed
system.cpu0.fetch.rateDist::samples          30509406                       # Number of instructions fetched each cycle (Total)
system.cpu0.fetch.rateDist::mean             0.291572                       # Number of instructions fetched each cycle (Total)
system.cpu0.fetch.rateDist::stdev            1.355186                       # Number of instructions fetched each cycle (Total)
system.cpu0.fetch.rateDist::underflows              0      0.00%      0.00% # Number of instructions fetched each cycle (Total)
system.cpu0.fetch.rateDist::0                28754845     94.25%     94.25% # Number of instructions fetched each cycle (Total)
system.cpu0.fetch.rateDist::1                   13193      0.04%     94.29% # Number of instructions fetched each cycle (Total)
system.cpu0.fetch.rateDist::2                  683032      2.24%     96.53% # Number of instructions fetched each cycle (Total)
system.cpu0.fetch.rateDist::3                   19806      0.06%     96.60% # Number of instructions fetched each cycle (Total)
system.cpu0.fetch.rateDist::4                  126796      0.42%     97.01% # Number of instructions fetched each cycle (Total)
system.cpu0.fetch.rateDist::5                   52290      0.17%     97.18% # Number of instructions fetched each cycle (Total)
system.cpu0.fetch.rateDist::6                   84411      0.28%     97.46% # Number of instructions fetched each cycle (Total)
system.cpu0.fetch.rateDist::7                   18357      0.06%     97.52% # Number of instructions fetched each cycle (Total)
system.cpu0.fetch.rateDist::8                  756676      2.48%    100.00% # Number of instructions fetched each cycle (Total)
system.cpu0.fetch.rateDist::overflows               0      0.00%    100.00% # Number of instructions fetched each cycle (Total)
system.cpu0.fetch.rateDist::min_value               0                       # Number of instructions fetched each cycle (Total)
system.cpu0.fetch.rateDist::max_value               8                       # Number of instructions fetched each cycle (Total)
system.cpu0.fetch.rateDist::total            30509406                       # Number of instructions fetched each cycle (Total)
system.cpu0.fetch.branchRate                 0.051018                       # Number of branch fetches per cycle
system.cpu0.fetch.rate                       0.145098                       # Number of inst fetches per cycle
system.cpu0.decode.IdleCycles                  641354                       # Number of cycles decode is idle
system.cpu0.decode.BlockedCycles             28686217                       # Number of cycles decode is blocked
system.cpu0.decode.RunCycles                   800596                       # Number of cycles decode is running
system.cpu0.decode.UnblockCycles               322369                       # Number of cycles decode is unblocking
system.cpu0.decode.SquashCycles                 58870                       # Number of cycles decode is squashing
system.cpu0.decode.DecodedInsts               7283097                       # Number of instructions handled by decode
system.cpu0.rename.SquashCycles                 58870                       # Number of cycles rename is squashing
system.cpu0.rename.IdleCycles                  734382                       # Number of cycles rename is idle
system.cpu0.rename.BlockCycles               27377446                       # Number of cycles rename is blocking
system.cpu0.rename.serializeStallCycles          7115                       # count of cycles rename stalled for serializing inst
system.cpu0.rename.RunCycles                   950471                       # Number of cycles rename is running
system.cpu0.rename.UnblockCycles              1381122                       # Number of cycles rename is unblocking
system.cpu0.rename.RenamedInsts               7005266                       # Number of instructions processed by rename
system.cpu0.rename.ROBFullEvents                68246                       # Number of times rename has blocked due to ROB full
system.cpu0.rename.IQFullEvents               1101662                       # Number of times rename has blocked due to IQ full
system.cpu0.rename.LQFullEvents                229238                       # Number of times rename has blocked due to LQ full
system.cpu0.rename.SQFullEvents                  2407                       # Number of times rename has blocked due to SQ full
system.cpu0.rename.RenamedOperands            8373444                       # Number of destination operands rename has renamed
system.cpu0.rename.RenameLookups             19658553                       # Number of register rename lookups that rename has made
system.cpu0.rename.int_rename_lookups         9066725                       # Number of integer rename lookups
system.cpu0.rename.fp_rename_lookups            27869                       # Number of floating rename lookups
system.cpu0.rename.CommittedMaps              3123311                       # Number of HB maps that are committed
system.cpu0.rename.UndoneMaps                 5250148                       # Number of HB maps that are undone due to squashing
system.cpu0.rename.serializingInsts               270                       # count of serializing insts renamed
system.cpu0.rename.tempSerializingInsts           300                       # count of temporary serializing insts renamed
system.cpu0.rename.skidInsts                  2087888                       # count of insts added to the skid buffer
system.cpu0.memDep0.insertedLoads             1296060                       # Number of loads inserted to the mem dependence unit.
system.cpu0.memDep0.insertedStores              56347                       # Number of stores inserted to the mem dependence unit.
system.cpu0.memDep0.conflictingLoads             3740                       # Number of conflicting loads.
system.cpu0.memDep0.conflictingStores            3698                       # Number of conflicting stores.
system.cpu0.iq.iqInstsAdded                   6705439                       # Number of instructions added to the IQ (excludes non-spec)
system.cpu0.iq.iqNonSpecInstsAdded               3430                       # Number of non-speculative instructions added to the IQ
system.cpu0.iq.iqInstsIssued                  4786125                       # Number of instructions issued
system.cpu0.iq.iqSquashedInstsIssued             4313                       # Number of squashed instructions issued
system.cpu0.iq.iqSquashedInstsExamined        4101066                       # Number of squashed instructions iterated over during squash; mainly for profiling
system.cpu0.iq.iqSquashedOperandsExamined      8859663                       # Number of squashed operands that are examined and possibly removed from graph
system.cpu0.iq.iqSquashedNonSpecRemoved          3430                       # Number of squashed non-spec instructions that were removed
system.cpu0.iq.issued_per_cycle::samples     30509406                       # Number of insts issued each cycle
system.cpu0.iq.issued_per_cycle::mean        0.156874                       # Number of insts issued each cycle
system.cpu0.iq.issued_per_cycle::stdev       0.707901                       # Number of insts issued each cycle
system.cpu0.iq.issued_per_cycle::underflows            0      0.00%      0.00% # Number of insts issued each cycle
system.cpu0.iq.issued_per_cycle::0           28471745     93.32%     93.32% # Number of insts issued each cycle
system.cpu0.iq.issued_per_cycle::1             836259      2.74%     96.06% # Number of insts issued each cycle
system.cpu0.iq.issued_per_cycle::2             443064      1.45%     97.51% # Number of insts issued each cycle
system.cpu0.iq.issued_per_cycle::3             294065      0.96%     98.48% # Number of insts issued each cycle
system.cpu0.iq.issued_per_cycle::4             290440      0.95%     99.43% # Number of insts issued each cycle
system.cpu0.iq.issued_per_cycle::5              74788      0.25%     99.68% # Number of insts issued each cycle
system.cpu0.iq.issued_per_cycle::6              63420      0.21%     99.88% # Number of insts issued each cycle
system.cpu0.iq.issued_per_cycle::7              19677      0.06%     99.95% # Number of insts issued each cycle
system.cpu0.iq.issued_per_cycle::8              15948      0.05%    100.00% # Number of insts issued each cycle
system.cpu0.iq.issued_per_cycle::overflows            0      0.00%    100.00% # Number of insts issued each cycle
system.cpu0.iq.issued_per_cycle::min_value            0                       # Number of insts issued each cycle
system.cpu0.iq.issued_per_cycle::max_value            8                       # Number of insts issued each cycle
system.cpu0.iq.issued_per_cycle::total       30509406                       # Number of insts issued each cycle
system.cpu0.iq.fu_full::No_OpClass                  0      0.00%      0.00% # attempts to use FU when none available
system.cpu0.iq.fu_full::IntAlu                   8153     66.04%     66.04% # attempts to use FU when none available
system.cpu0.iq.fu_full::IntMult                     0      0.00%     66.04% # attempts to use FU when none available
system.cpu0.iq.fu_full::IntDiv                      0      0.00%     66.04% # attempts to use FU when none available
system.cpu0.iq.fu_full::FloatAdd                  839      6.80%     72.84% # attempts to use FU when none available
system.cpu0.iq.fu_full::FloatCmp                    0      0.00%     72.84% # attempts to use FU when none available
system.cpu0.iq.fu_full::FloatCvt                    0      0.00%     72.84% # attempts to use FU when none available
system.cpu0.iq.fu_full::FloatMult                   0      0.00%     72.84% # attempts to use FU when none available
system.cpu0.iq.fu_full::FloatMultAcc                0      0.00%     72.84% # attempts to use FU when none available
system.cpu0.iq.fu_full::FloatDiv                    0      0.00%     72.84% # attempts to use FU when none available
system.cpu0.iq.fu_full::FloatMisc                   0      0.00%     72.84% # attempts to use FU when none available
system.cpu0.iq.fu_full::FloatSqrt                   0      0.00%     72.84% # attempts to use FU when none available
system.cpu0.iq.fu_full::SimdAdd                     0      0.00%     72.84% # attempts to use FU when none available
system.cpu0.iq.fu_full::SimdAddAcc                  0      0.00%     72.84% # attempts to use FU when none available
system.cpu0.iq.fu_full::SimdAlu                     0      0.00%     72.84% # attempts to use FU when none available
system.cpu0.iq.fu_full::SimdCmp                     0      0.00%     72.84% # attempts to use FU when none available
system.cpu0.iq.fu_full::SimdCvt                     0      0.00%     72.84% # attempts to use FU when none available
system.cpu0.iq.fu_full::SimdMisc                    0      0.00%     72.84% # attempts to use FU when none available
system.cpu0.iq.fu_full::SimdMult                    0      0.00%     72.84% # attempts to use FU when none available
system.cpu0.iq.fu_full::SimdMultAcc                 0      0.00%     72.84% # attempts to use FU when none available
system.cpu0.iq.fu_full::SimdShift                   0      0.00%     72.84% # attempts to use FU when none available
system.cpu0.iq.fu_full::SimdShiftAcc                0      0.00%     72.84% # attempts to use FU when none available
system.cpu0.iq.fu_full::SimdSqrt                    0      0.00%     72.84% # attempts to use FU when none available
system.cpu0.iq.fu_full::SimdFloatAdd                0      0.00%     72.84% # attempts to use FU when none available
system.cpu0.iq.fu_full::SimdFloatAlu                0      0.00%     72.84% # attempts to use FU when none available
system.cpu0.iq.fu_full::SimdFloatCmp                0      0.00%     72.84% # attempts to use FU when none available
system.cpu0.iq.fu_full::SimdFloatCvt                0      0.00%     72.84% # attempts to use FU when none available
system.cpu0.iq.fu_full::SimdFloatDiv                0      0.00%     72.84% # attempts to use FU when none available
system.cpu0.iq.fu_full::SimdFloatMisc               0      0.00%     72.84% # attempts to use FU when none available
system.cpu0.iq.fu_full::SimdFloatMult               0      0.00%     72.84% # attempts to use FU when none available
system.cpu0.iq.fu_full::SimdFloatMultAcc            0      0.00%     72.84% # attempts to use FU when none available
system.cpu0.iq.fu_full::SimdFloatSqrt               0      0.00%     72.84% # attempts to use FU when none available
system.cpu0.iq.fu_full::MemRead                  3022     24.48%     97.32% # attempts to use FU when none available
system.cpu0.iq.fu_full::MemWrite                  213      1.73%     99.04% # attempts to use FU when none available
system.cpu0.iq.fu_full::FloatMemRead               40      0.32%     99.37% # attempts to use FU when none available
system.cpu0.iq.fu_full::FloatMemWrite              78      0.63%    100.00% # attempts to use FU when none available
system.cpu0.iq.fu_full::IprAccess                   0      0.00%    100.00% # attempts to use FU when none available
system.cpu0.iq.fu_full::InstPrefetch                0      0.00%    100.00% # attempts to use FU when none available
system.cpu0.iq.FU_type_0::No_OpClass            12298      0.26%      0.26% # Type of FU issued
system.cpu0.iq.FU_type_0::IntAlu              3956188     82.66%     82.92% # Type of FU issued
system.cpu0.iq.FU_type_0::IntMult                 980      0.02%     82.94% # Type of FU issued
system.cpu0.iq.FU_type_0::IntDiv                 7218      0.15%     83.09% # Type of FU issued
system.cpu0.iq.FU_type_0::FloatAdd              10898      0.23%     83.32% # Type of FU issued
system.cpu0.iq.FU_type_0::FloatCmp                  0      0.00%     83.32% # Type of FU issued
system.cpu0.iq.FU_type_0::FloatCvt                  0      0.00%     83.32% # Type of FU issued
system.cpu0.iq.FU_type_0::FloatMult                 0      0.00%     83.32% # Type of FU issued
system.cpu0.iq.FU_type_0::FloatMultAcc              0      0.00%     83.32% # Type of FU issued
system.cpu0.iq.FU_type_0::FloatDiv                  0      0.00%     83.32% # Type of FU issued
system.cpu0.iq.FU_type_0::FloatMisc                 0      0.00%     83.32% # Type of FU issued
system.cpu0.iq.FU_type_0::FloatSqrt                 0      0.00%     83.32% # Type of FU issued
system.cpu0.iq.FU_type_0::SimdAdd                   0      0.00%     83.32% # Type of FU issued
system.cpu0.iq.FU_type_0::SimdAddAcc                0      0.00%     83.32% # Type of FU issued
system.cpu0.iq.FU_type_0::SimdAlu                   0      0.00%     83.32% # Type of FU issued
system.cpu0.iq.FU_type_0::SimdCmp                   0      0.00%     83.32% # Type of FU issued
system.cpu0.iq.FU_type_0::SimdCvt                   0      0.00%     83.32% # Type of FU issued
system.cpu0.iq.FU_type_0::SimdMisc                  0      0.00%     83.32% # Type of FU issued
system.cpu0.iq.FU_type_0::SimdMult                  0      0.00%     83.32% # Type of FU issued
system.cpu0.iq.FU_type_0::SimdMultAcc               0      0.00%     83.32% # Type of FU issued
system.cpu0.iq.FU_type_0::SimdShift                 0      0.00%     83.32% # Type of FU issued
system.cpu0.iq.FU_type_0::SimdShiftAcc              0      0.00%     83.32% # Type of FU issued
system.cpu0.iq.FU_type_0::SimdSqrt                  0      0.00%     83.32% # Type of FU issued
system.cpu0.iq.FU_type_0::SimdFloatAdd              0      0.00%     83.32% # Type of FU issued
system.cpu0.iq.FU_type_0::SimdFloatAlu              0      0.00%     83.32% # Type of FU issued
system.cpu0.iq.FU_type_0::SimdFloatCmp              0      0.00%     83.32% # Type of FU issued
system.cpu0.iq.FU_type_0::SimdFloatCvt              0      0.00%     83.32% # Type of FU issued
system.cpu0.iq.FU_type_0::SimdFloatDiv              0      0.00%     83.32% # Type of FU issued
system.cpu0.iq.FU_type_0::SimdFloatMisc             0      0.00%     83.32% # Type of FU issued
system.cpu0.iq.FU_type_0::SimdFloatMult             0      0.00%     83.32% # Type of FU issued
system.cpu0.iq.FU_type_0::SimdFloatMultAcc            0      0.00%     83.32% # Type of FU issued
system.cpu0.iq.FU_type_0::SimdFloatSqrt             0      0.00%     83.32% # Type of FU issued
system.cpu0.iq.FU_type_0::MemRead              755290     15.78%     99.10% # Type of FU issued
system.cpu0.iq.FU_type_0::MemWrite              41342      0.86%     99.96% # Type of FU issued
system.cpu0.iq.FU_type_0::FloatMemRead           1604      0.03%     99.99% # Type of FU issued
system.cpu0.iq.FU_type_0::FloatMemWrite           307      0.01%    100.00% # Type of FU issued
system.cpu0.iq.FU_type_0::IprAccess                 0      0.00%    100.00% # Type of FU issued
system.cpu0.iq.FU_type_0::InstPrefetch              0      0.00%    100.00% # Type of FU issued
system.cpu0.iq.FU_type_0::total               4786125                       # Type of FU issued
system.cpu0.iq.rate                          0.156744                       # Inst issue rate
system.cpu0.iq.fu_busy_cnt                      12345                       # FU busy when requested
system.cpu0.iq.fu_busy_rate                  0.002579                       # FU busy rate (busy events/executed inst)
system.cpu0.iq.int_inst_queue_reads          40071499                       # Number of integer instruction queue reads
system.cpu0.iq.int_inst_queue_writes         10787002                       # Number of integer instruction queue writes
system.cpu0.iq.int_inst_queue_wakeup_accesses      4615357                       # Number of integer instruction queue wakeup accesses
system.cpu0.iq.fp_inst_queue_reads              26815                       # Number of floating instruction queue reads
system.cpu0.iq.fp_inst_queue_writes             22934                       # Number of floating instruction queue writes
system.cpu0.iq.fp_inst_queue_wakeup_accesses        11889                       # Number of floating instruction queue wakeup accesses
system.cpu0.iq.vec_inst_queue_reads                 0                       # Number of vector instruction queue reads
system.cpu0.iq.vec_inst_queue_writes                0                       # Number of vector instruction queue writes
system.cpu0.iq.vec_inst_queue_wakeup_accesses            0                       # Number of vector instruction queue wakeup accesses
system.cpu0.iq.int_alu_accesses               4772383                       # Number of integer alu accesses
system.cpu0.iq.fp_alu_accesses                  13789                       # Number of floating point alu accesses
system.cpu0.iq.vec_alu_accesses                     0                       # Number of vector alu accesses
system.cpu0.iew.lsq.thread0.forwLoads            3835                       # Number of loads that had data forwarded from stores
system.cpu0.iew.lsq.thread0.invAddrLoads            0                       # Number of loads ignored due to an invalid address
system.cpu0.iew.lsq.thread0.squashedLoads       792294                       # Number of loads squashed
system.cpu0.iew.lsq.thread0.ignoredResponses           92                       # Number of memory responses ignored because the instruction is squashed
system.cpu0.iew.lsq.thread0.memOrderViolation            2                       # Number of memory ordering violations
system.cpu0.iew.lsq.thread0.squashedStores        35206                       # Number of stores squashed
system.cpu0.iew.lsq.thread0.invAddrSwpfs            0                       # Number of software prefetches ignored due to an invalid address
system.cpu0.iew.lsq.thread0.blockedLoads            0                       # Number of blocked loads due to partial load-store forwarding
system.cpu0.iew.lsq.thread0.rescheduledLoads           30                       # Number of loads that were rescheduled
system.cpu0.iew.lsq.thread0.cacheBlocked         1568                       # Number of times an access to memory failed due to the cache being blocked
system.cpu0.iew.iewIdleCycles                       0                       # Number of cycles IEW is idle
system.cpu0.iew.iewSquashCycles                 58870                       # Number of cycles IEW is squashing
system.cpu0.iew.iewBlockCycles               25533045                       # Number of cycles IEW is blocking
system.cpu0.iew.iewUnblockCycles               279317                       # Number of cycles IEW is unblocking
system.cpu0.iew.iewDispatchedInsts            6708869                       # Number of instructions dispatched to IQ
system.cpu0.iew.iewDispSquashedInsts             3850                       # Number of squashed instructions skipped by dispatch
system.cpu0.iew.iewDispLoadInsts              1296060                       # Number of dispatched load instructions
system.cpu0.iew.iewDispStoreInsts               56347                       # Number of dispatched store instructions
system.cpu0.iew.iewDispNonSpecInsts              1308                       # Number of dispatched non-speculative instructions
system.cpu0.iew.iewIQFullEvents                 16227                       # Number of times the IQ has become full, causing a stall
system.cpu0.iew.iewLSQFullEvents                61237                       # Number of times the LSQ has become full, causing a stall
system.cpu0.iew.memOrderViolationEvents             2                       # Number of memory order violations
system.cpu0.iew.predictedTakenIncorrect         35034                       # Number of branches that were predicted taken incorrectly
system.cpu0.iew.predictedNotTakenIncorrect        28898                       # Number of branches that were predicted not taken incorrectly
system.cpu0.iew.branchMispredicts               63932                       # Number of branch mispredicts detected at execute
system.cpu0.iew.iewExecutedInsts              4716136                       # Number of executed instructions
system.cpu0.iew.iewExecLoadInsts               728336                       # Number of load instructions executed
system.cpu0.iew.iewExecSquashedInsts            69989                       # Number of squashed instructions skipped in execute
system.cpu0.iew.exec_swp                            0                       # number of swp insts executed
system.cpu0.iew.exec_nop                            0                       # number of nop insts executed
system.cpu0.iew.exec_refs                      767026                       # number of memory reference insts executed
system.cpu0.iew.exec_branches                  580194                       # Number of branches executed
system.cpu0.iew.exec_stores                     38690                       # Number of stores executed
system.cpu0.iew.exec_rate                    0.154452                       # Inst execution rate
system.cpu0.iew.wb_sent                       4639137                       # cumulative count of insts sent to commit
system.cpu0.iew.wb_count                      4627246                       # cumulative count of insts written-back
system.cpu0.iew.wb_producers                  3386587                       # num instructions producing a value
system.cpu0.iew.wb_consumers                  5366167                       # num instructions consuming a value
system.cpu0.iew.wb_rate                      0.151541                       # insts written-back per cycle
system.cpu0.iew.wb_fanout                    0.631100                       # average fanout of values written-back
system.cpu0.commit.commitSquashedInsts        4101619                       # The number of squashed insts skipped by commit
system.cpu0.commit.branchMispredicts            58869                       # The number of times a branch was mispredicted
system.cpu0.commit.committed_per_cycle::samples     29938289                       # Number of insts commited each cycle
system.cpu0.commit.committed_per_cycle::mean     0.087106                       # Number of insts commited each cycle
system.cpu0.commit.committed_per_cycle::stdev     0.535627                       # Number of insts commited each cycle
system.cpu0.commit.committed_per_cycle::underflows            0      0.00%      0.00% # Number of insts commited each cycle
system.cpu0.commit.committed_per_cycle::0     28783459     96.14%     96.14% # Number of insts commited each cycle
system.cpu0.commit.committed_per_cycle::1       539254      1.80%     97.94% # Number of insts commited each cycle
system.cpu0.commit.committed_per_cycle::2       126713      0.42%     98.37% # Number of insts commited each cycle
system.cpu0.commit.committed_per_cycle::3       351004      1.17%     99.54% # Number of insts commited each cycle
system.cpu0.commit.committed_per_cycle::4        58264      0.19%     99.73% # Number of insts commited each cycle
system.cpu0.commit.committed_per_cycle::5        32020      0.11%     99.84% # Number of insts commited each cycle
system.cpu0.commit.committed_per_cycle::6         4070      0.01%     99.85% # Number of insts commited each cycle
system.cpu0.commit.committed_per_cycle::7         3491      0.01%     99.87% # Number of insts commited each cycle
system.cpu0.commit.committed_per_cycle::8        40014      0.13%    100.00% # Number of insts commited each cycle
system.cpu0.commit.committed_per_cycle::overflows            0      0.00%    100.00% # Number of insts commited each cycle
system.cpu0.commit.committed_per_cycle::min_value            0                       # Number of insts commited each cycle
system.cpu0.commit.committed_per_cycle::max_value            8                       # Number of insts commited each cycle
system.cpu0.commit.committed_per_cycle::total     29938289                       # Number of insts commited each cycle
system.cpu0.commit.committedInsts             1305021                       # Number of instructions committed
system.cpu0.commit.committedOps               2607817                       # Number of ops (including micro ops) committed
system.cpu0.commit.swp_count                        0                       # Number of s/w prefetches committed
system.cpu0.commit.refs                        524909                       # Number of memory references committed
system.cpu0.commit.loads                       503768                       # Number of loads committed
system.cpu0.commit.membars                          0                       # Number of memory barriers committed
system.cpu0.commit.branches                    478976                       # Number of branches committed
system.cpu0.commit.vec_insts                        0                       # Number of committed Vector instructions.
system.cpu0.commit.fp_insts                      8452                       # Number of committed floating point instructions.
system.cpu0.commit.int_insts                  2599294                       # Number of committed integer instructions.
system.cpu0.commit.function_calls                3725                       # Number of function calls committed.
system.cpu0.commit.op_class_0::No_OpClass         2527      0.10%      0.10% # Class of committed instruction
system.cpu0.commit.op_class_0::IntAlu         2066923     79.26%     79.36% # Class of committed instruction
system.cpu0.commit.op_class_0::IntMult            149      0.01%     79.36% # Class of committed instruction
system.cpu0.commit.op_class_0::IntDiv            6085      0.23%     79.59% # Class of committed instruction
system.cpu0.commit.op_class_0::FloatAdd          7224      0.28%     79.87% # Class of committed instruction
system.cpu0.commit.op_class_0::FloatCmp             0      0.00%     79.87% # Class of committed instruction
system.cpu0.commit.op_class_0::FloatCvt             0      0.00%     79.87% # Class of committed instruction
system.cpu0.commit.op_class_0::FloatMult            0      0.00%     79.87% # Class of committed instruction
system.cpu0.commit.op_class_0::FloatMultAcc            0      0.00%     79.87% # Class of committed instruction
system.cpu0.commit.op_class_0::FloatDiv             0      0.00%     79.87% # Class of committed instruction
system.cpu0.commit.op_class_0::FloatMisc            0      0.00%     79.87% # Class of committed instruction
system.cpu0.commit.op_class_0::FloatSqrt            0      0.00%     79.87% # Class of committed instruction
system.cpu0.commit.op_class_0::SimdAdd              0      0.00%     79.87% # Class of committed instruction
system.cpu0.commit.op_class_0::SimdAddAcc            0      0.00%     79.87% # Class of committed instruction
system.cpu0.commit.op_class_0::SimdAlu              0      0.00%     79.87% # Class of committed instruction
system.cpu0.commit.op_class_0::SimdCmp              0      0.00%     79.87% # Class of committed instruction
system.cpu0.commit.op_class_0::SimdCvt              0      0.00%     79.87% # Class of committed instruction
system.cpu0.commit.op_class_0::SimdMisc             0      0.00%     79.87% # Class of committed instruction
system.cpu0.commit.op_class_0::SimdMult             0      0.00%     79.87% # Class of committed instruction
system.cpu0.commit.op_class_0::SimdMultAcc            0      0.00%     79.87% # Class of committed instruction
system.cpu0.commit.op_class_0::SimdShift            0      0.00%     79.87% # Class of committed instruction
system.cpu0.commit.op_class_0::SimdShiftAcc            0      0.00%     79.87% # Class of committed instruction
system.cpu0.commit.op_class_0::SimdSqrt             0      0.00%     79.87% # Class of committed instruction
system.cpu0.commit.op_class_0::SimdFloatAdd            0      0.00%     79.87% # Class of committed instruction
system.cpu0.commit.op_class_0::SimdFloatAlu            0      0.00%     79.87% # Class of committed instruction
system.cpu0.commit.op_class_0::SimdFloatCmp            0      0.00%     79.87% # Class of committed instruction
system.cpu0.commit.op_class_0::SimdFloatCvt            0      0.00%     79.87% # Class of committed instruction
system.cpu0.commit.op_class_0::SimdFloatDiv            0      0.00%     79.87% # Class of committed instruction
system.cpu0.commit.op_class_0::SimdFloatMisc            0      0.00%     79.87% # Class of committed instruction
system.cpu0.commit.op_class_0::SimdFloatMult            0      0.00%     79.87% # Class of committed instruction
system.cpu0.commit.op_class_0::SimdFloatMultAcc            0      0.00%     79.87% # Class of committed instruction
system.cpu0.commit.op_class_0::SimdFloatSqrt            0      0.00%     79.87% # Class of committed instruction
system.cpu0.commit.op_class_0::MemRead         502540     19.27%     99.14% # Class of committed instruction
system.cpu0.commit.op_class_0::MemWrite         21141      0.81%     99.95% # Class of committed instruction
system.cpu0.commit.op_class_0::FloatMemRead         1228      0.05%    100.00% # Class of committed instruction
system.cpu0.commit.op_class_0::FloatMemWrite            0      0.00%    100.00% # Class of committed instruction
system.cpu0.commit.op_class_0::IprAccess            0      0.00%    100.00% # Class of committed instruction
system.cpu0.commit.op_class_0::InstPrefetch            0      0.00%    100.00% # Class of committed instruction
system.cpu0.commit.op_class_0::total          2607817                       # Class of committed instruction
system.cpu0.commit.bw_lim_events                40014                       # number cycles where commit BW limit reached
system.cpu0.rob.rob_reads                    36607711                       # The number of ROB reads
system.cpu0.rob.rob_writes                   13990965                       # The number of ROB writes
system.cpu0.timesIdled                            188                       # Number of times that the entire CPU went into an idle state and unscheduled itself
system.cpu0.idleCycles                          25282                       # Total number of cycles that the CPU has spent unscheduled due to idling
system.cpu0.committedInsts                    1305021                       # Number of Instructions Simulated
system.cpu0.committedOps                      2607817                       # Number of Ops (including micro ops) Simulated
system.cpu0.cpi                             23.397852                       # CPI: Cycles Per Instruction
system.cpu0.cpi_total                       23.397852                       # CPI: Total CPI of All Threads
system.cpu0.ipc                              0.042739                       # IPC: Instructions Per Cycle
system.cpu0.ipc_total                        0.042739                       # IPC: Total IPC of All Threads
system.cpu0.int_regfile_reads                 4615857                       # number of integer regfile reads
system.cpu0.int_regfile_writes                4012557                       # number of integer regfile writes
system.cpu0.fp_regfile_reads                    21168                       # number of floating regfile reads
system.cpu0.fp_regfile_writes                   10474                       # number of floating regfile writes
system.cpu0.cc_regfile_reads                  3090752                       # number of cc regfile reads
system.cpu0.cc_regfile_writes                 1276284                       # number of cc regfile writes
system.cpu0.misc_regfile_reads                2531075                       # number of misc regfile reads
system.cpu0.dcache.tags.pwrStateResidencyTicks::UNDEFINED  15267344125                       # Cumulative time (in ticks) in various power states
system.cpu0.dcache.tags.replacements           269441                       # number of replacements
system.cpu0.dcache.tags.tagsinuse                1024                       # Cycle average of tags in use
system.cpu0.dcache.tags.total_refs             271113                       # Total number of references to valid blocks.
system.cpu0.dcache.tags.sampled_refs           269441                       # Sample count of references to valid blocks.
system.cpu0.dcache.tags.avg_refs             1.006205                       # Average number of references to valid blocks.
system.cpu0.dcache.tags.warmup_cycle                0                       # Cycle when the warmup percentage was hit.
system.cpu0.dcache.tags.occ_blocks::cpu0.data         1024                       # Average occupied blocks per requestor
system.cpu0.dcache.tags.occ_percent::cpu0.data            1                       # Average percentage of cache occupancy
system.cpu0.dcache.tags.occ_percent::total            1                       # Average percentage of cache occupancy
system.cpu0.dcache.tags.occ_task_id_blocks::1024         1024                       # Occupied blocks per task id
system.cpu0.dcache.tags.age_task_id_blocks_1024::0          129                       # Occupied blocks per task id
system.cpu0.dcache.tags.age_task_id_blocks_1024::1          794                       # Occupied blocks per task id
system.cpu0.dcache.tags.age_task_id_blocks_1024::2          101                       # Occupied blocks per task id
system.cpu0.dcache.tags.occ_task_id_percent::1024            1                       # Percentage of cache occupancy per task id
system.cpu0.dcache.tags.tag_accesses          3236617                       # Number of tag accesses
system.cpu0.dcache.tags.data_accesses         3236617                       # Number of data accesses
system.cpu0.dcache.pwrStateResidencyTicks::UNDEFINED  15267344125                       # Cumulative time (in ticks) in various power states
system.cpu0.dcache.ReadReq_hits::cpu0.data       250998                       # number of ReadReq hits
system.cpu0.dcache.ReadReq_hits::total         250998                       # number of ReadReq hits
system.cpu0.dcache.WriteReq_hits::cpu0.data        20268                       # number of WriteReq hits
system.cpu0.dcache.WriteReq_hits::total         20268                       # number of WriteReq hits
system.cpu0.dcache.demand_hits::cpu0.data       271266                       # number of demand (read+write) hits
system.cpu0.dcache.demand_hits::total          271266                       # number of demand (read+write) hits
system.cpu0.dcache.overall_hits::cpu0.data       271266                       # number of overall hits
system.cpu0.dcache.overall_hits::total         271266                       # number of overall hits
system.cpu0.dcache.ReadReq_misses::cpu0.data       469655                       # number of ReadReq misses
system.cpu0.dcache.ReadReq_misses::total       469655                       # number of ReadReq misses
system.cpu0.dcache.WriteReq_misses::cpu0.data          873                       # number of WriteReq misses
system.cpu0.dcache.WriteReq_misses::total          873                       # number of WriteReq misses
system.cpu0.dcache.demand_misses::cpu0.data       470528                       # number of demand (read+write) misses
system.cpu0.dcache.demand_misses::total        470528                       # number of demand (read+write) misses
system.cpu0.dcache.overall_misses::cpu0.data       470528                       # number of overall misses
system.cpu0.dcache.overall_misses::total       470528                       # number of overall misses
system.cpu0.dcache.ReadReq_miss_latency::cpu0.data  34340576000                       # number of ReadReq miss cycles
system.cpu0.dcache.ReadReq_miss_latency::total  34340576000                       # number of ReadReq miss cycles
system.cpu0.dcache.WriteReq_miss_latency::cpu0.data     31933998                       # number of WriteReq miss cycles
system.cpu0.dcache.WriteReq_miss_latency::total     31933998                       # number of WriteReq miss cycles
system.cpu0.dcache.demand_miss_latency::cpu0.data  34372509998                       # number of demand (read+write) miss cycles
system.cpu0.dcache.demand_miss_latency::total  34372509998                       # number of demand (read+write) miss cycles
system.cpu0.dcache.overall_miss_latency::cpu0.data  34372509998                       # number of overall miss cycles
system.cpu0.dcache.overall_miss_latency::total  34372509998                       # number of overall miss cycles
system.cpu0.dcache.ReadReq_accesses::cpu0.data       720653                       # number of ReadReq accesses(hits+misses)
system.cpu0.dcache.ReadReq_accesses::total       720653                       # number of ReadReq accesses(hits+misses)
system.cpu0.dcache.WriteReq_accesses::cpu0.data        21141                       # number of WriteReq accesses(hits+misses)
system.cpu0.dcache.WriteReq_accesses::total        21141                       # number of WriteReq accesses(hits+misses)
system.cpu0.dcache.demand_accesses::cpu0.data       741794                       # number of demand (read+write) accesses
system.cpu0.dcache.demand_accesses::total       741794                       # number of demand (read+write) accesses
system.cpu0.dcache.overall_accesses::cpu0.data       741794                       # number of overall (read+write) accesses
system.cpu0.dcache.overall_accesses::total       741794                       # number of overall (read+write) accesses
system.cpu0.dcache.ReadReq_miss_rate::cpu0.data     0.651708                       # miss rate for ReadReq accesses
system.cpu0.dcache.ReadReq_miss_rate::total     0.651708                       # miss rate for ReadReq accesses
system.cpu0.dcache.WriteReq_miss_rate::cpu0.data     0.041294                       # miss rate for WriteReq accesses
system.cpu0.dcache.WriteReq_miss_rate::total     0.041294                       # miss rate for WriteReq accesses
system.cpu0.dcache.demand_miss_rate::cpu0.data     0.634311                       # miss rate for demand accesses
system.cpu0.dcache.demand_miss_rate::total     0.634311                       # miss rate for demand accesses
system.cpu0.dcache.overall_miss_rate::cpu0.data     0.634311                       # miss rate for overall accesses
system.cpu0.dcache.overall_miss_rate::total     0.634311                       # miss rate for overall accesses
system.cpu0.dcache.ReadReq_avg_miss_latency::cpu0.data 73118.727577                       # average ReadReq miss latency
system.cpu0.dcache.ReadReq_avg_miss_latency::total 73118.727577                       # average ReadReq miss latency
system.cpu0.dcache.WriteReq_avg_miss_latency::cpu0.data 36579.608247                       # average WriteReq miss latency
system.cpu0.dcache.WriteReq_avg_miss_latency::total 36579.608247                       # average WriteReq miss latency
system.cpu0.dcache.demand_avg_miss_latency::cpu0.data 73050.934265                       # average overall miss latency
system.cpu0.dcache.demand_avg_miss_latency::total 73050.934265                       # average overall miss latency
system.cpu0.dcache.overall_avg_miss_latency::cpu0.data 73050.934265                       # average overall miss latency
system.cpu0.dcache.overall_avg_miss_latency::total 73050.934265                       # average overall miss latency
system.cpu0.dcache.blocked_cycles::no_mshrs        32227                       # number of cycles access was blocked
[...]
system.l2.ReadSharedReq_hits::cpu0.data         79077                       # number of ReadSharedReq hits
system.l2.ReadSharedReq_hits::total             79077                       # number of ReadSharedReq hits
system.l2.demand_hits::cpu0.data                79741                       # number of demand (read+write) hits
system.l2.demand_hits::total                    79741                       # number of demand (read+write) hits
system.l2.overall_hits::cpu0.data               79741                       # number of overall hits
system.l2.overall_hits::total                   79741                       # number of overall hits
system.l2.ReadExReq_misses::cpu0.data             202                       # number of ReadExReq misses
system.l2.ReadExReq_misses::total                 202                       # number of ReadExReq misses
system.l2.ReadSharedReq_misses::cpu0.data       189497                       # number of ReadSharedReq misses
system.l2.ReadSharedReq_misses::total          189497                       # number of ReadSharedReq misses
system.l2.demand_misses::cpu0.data             189699                       # number of demand (read+write) misses
system.l2.demand_misses::total                 189699                       # number of demand (read+write) misses
system.l2.overall_misses::cpu0.data            189699                       # number of overall misses
system.l2.overall_misses::total                189699                       # number of overall misses
system.l2.ReadExReq_miss_latency::cpu0.data     21980000                       # number of ReadExReq miss cycles
system.l2.ReadExReq_miss_latency::total      21980000                       # number of ReadExReq miss cycles
system.l2.ReadSharedReq_miss_latency::cpu0.data  17994491000                       # number of ReadSharedReq miss cycles
system.l2.ReadSharedReq_miss_latency::total  17994491000                       # number of ReadSharedReq miss cycles
system.l2.demand_miss_latency::cpu0.data  18016471000                       # number of demand (read+write) miss cycles
system.l2.demand_miss_latency::total      18016471000                       # number of demand (read+write) miss cycles
system.l2.overall_miss_latency::cpu0.data  18016471000                       # number of overall miss cycles
system.l2.overall_miss_latency::total     18016471000                       # number of overall miss cycles
system.l2.WritebackDirty_accesses::writebacks         2447                       # number of WritebackDirty accesses(hits+misses)
system.l2.WritebackDirty_accesses::total         2447                       # number of WritebackDirty accesses(hits+misses)
system.l2.ReadExReq_accesses::cpu0.data           866                       # number of ReadExReq accesses(hits+misses)
system.l2.ReadExReq_accesses::total               866                       # number of ReadExReq accesses(hits+misses)
system.l2.ReadSharedReq_accesses::cpu0.data       268574                       # number of ReadSharedReq accesses(hits+misses)
system.l2.ReadSharedReq_accesses::total        268574                       # number of ReadSharedReq accesses(hits+misses)
system.l2.demand_accesses::cpu0.data           269440                       # number of demand (read+write) accesses
system.l2.demand_accesses::total               269440                       # number of demand (read+write) accesses
system.l2.overall_accesses::cpu0.data          269440                       # number of overall (read+write) accesses
system.l2.overall_accesses::total              269440                       # number of overall (read+write) accesses
system.l2.ReadExReq_miss_rate::cpu0.data     0.233256                       # miss rate for ReadExReq accesses
system.l2.ReadExReq_miss_rate::total         0.233256                       # miss rate for ReadExReq accesses
system.l2.ReadSharedReq_miss_rate::cpu0.data     0.705567                       # miss rate for ReadSharedReq accesses
system.l2.ReadSharedReq_miss_rate::total     0.705567                       # miss rate for ReadSharedReq accesses
system.l2.demand_miss_rate::cpu0.data        0.704049                       # miss rate for demand accesses
system.l2.demand_miss_rate::total            0.704049                       # miss rate for demand accesses
system.l2.overall_miss_rate::cpu0.data       0.704049                       # miss rate for overall accesses
system.l2.overall_miss_rate::total           0.704049                       # miss rate for overall accesses
system.l2.ReadExReq_avg_miss_latency::cpu0.data 108811.881188                       # average ReadExReq miss latency
system.l2.ReadExReq_avg_miss_latency::total 108811.881188                       # average ReadExReq miss latency
system.l2.ReadSharedReq_avg_miss_latency::cpu0.data 94959.239460                       # average ReadSharedReq miss latency
system.l2.ReadSharedReq_avg_miss_latency::total 94959.239460                       # average ReadSharedReq miss latency
system.l2.demand_avg_miss_latency::cpu0.data 94973.990374                       # average overall miss latency
system.l2.demand_avg_miss_latency::total 94973.990374                       # average overall miss latency
system.l2.overall_avg_miss_latency::cpu0.data 94973.990374                       # average overall miss latency
system.l2.overall_avg_miss_latency::total 94973.990374                       # average overall miss latency
system.l2.blocked_cycles::no_mshrs                  0                       # number of cycles access was blocked
system.l2.blocked_cycles::no_targets                0                       # number of cycles access was blocked
system.l2.blocked::no_mshrs                         0                       # number of cycles access was blocked
system.l2.blocked::no_targets                       0                       # number of cycles access was blocked
system.l2.avg_blocked_cycles::no_mshrs            nan                       # average number of cycles each access was blocked
system.l2.avg_blocked_cycles::no_targets          nan                       # average number of cycles each access was blocked
system.l2.writebacks::writebacks                  304                       # number of writebacks
system.l2.writebacks::total                       304                       # number of writebacks
system.l2.ReadExReq_mshr_misses::cpu0.data          202                       # number of ReadExReq MSHR misses
system.l2.ReadExReq_mshr_misses::total            202                       # number of ReadExReq MSHR misses
system.l2.ReadSharedReq_mshr_misses::cpu0.data       189497                       # number of ReadSharedReq MSHR misses
system.l2.ReadSharedReq_mshr_misses::total       189497                       # number of ReadSharedReq MSHR misses
system.l2.demand_mshr_misses::cpu0.data        189699                       # number of demand (read+write) MSHR misses
system.l2.demand_mshr_misses::total            189699                       # number of demand (read+write) MSHR misses
system.l2.overall_mshr_misses::cpu0.data       189699                       # number of overall MSHR misses
system.l2.overall_mshr_misses::total           189699                       # number of overall MSHR misses
system.l2.ReadExReq_mshr_miss_latency::cpu0.data     19960000                       # number of ReadExReq MSHR miss cycles
system.l2.ReadExReq_mshr_miss_latency::total     19960000                       # number of ReadExReq MSHR miss cycles
system.l2.ReadSharedReq_mshr_miss_latency::cpu0.data  16099531000                       # number of ReadSharedReq MSHR miss cycles
system.l2.ReadSharedReq_mshr_miss_latency::total  16099531000                       # number of ReadSharedReq MSHR miss cycles
system.l2.demand_mshr_miss_latency::cpu0.data  16119491000                       # number of demand (read+write) MSHR miss cycles
system.l2.demand_mshr_miss_latency::total  16119491000                       # number of demand (read+write) MSHR miss cycles
system.l2.overall_mshr_miss_latency::cpu0.data  16119491000                       # number of overall MSHR miss cycles
system.l2.overall_mshr_miss_latency::total  16119491000                       # number of overall MSHR miss cycles
system.l2.ReadExReq_mshr_miss_rate::cpu0.data     0.233256                       # mshr miss rate for ReadExReq accesses
system.l2.ReadExReq_mshr_miss_rate::total     0.233256                       # mshr miss rate for ReadExReq accesses
system.l2.ReadSharedReq_mshr_miss_rate::cpu0.data     0.705567                       # mshr miss rate for ReadSharedReq accesses
system.l2.ReadSharedReq_mshr_miss_rate::total     0.705567                       # mshr miss rate for ReadSharedReq accesses
system.l2.demand_mshr_miss_rate::cpu0.data     0.704049                       # mshr miss rate for demand accesses
system.l2.demand_mshr_miss_rate::total       0.704049                       # mshr miss rate for demand accesses
system.l2.overall_mshr_miss_rate::cpu0.data     0.704049                       # mshr miss rate for overall accesses
system.l2.overall_mshr_miss_rate::total      0.704049                       # mshr miss rate for overall accesses
system.l2.ReadExReq_avg_mshr_miss_latency::cpu0.data 98811.881188                       # average ReadExReq mshr miss latency
system.l2.ReadExReq_avg_mshr_miss_latency::total 98811.881188                       # average ReadExReq mshr miss latency
system.l2.ReadSharedReq_avg_mshr_miss_latency::cpu0.data 84959.292232                       # average ReadSharedReq mshr miss latency
system.l2.ReadSharedReq_avg_mshr_miss_latency::total 84959.292232                       # average ReadSharedReq mshr miss latency
system.l2.demand_avg_mshr_miss_latency::cpu0.data 84974.043089                       # average overall mshr miss latency
system.l2.demand_avg_mshr_miss_latency::total 84974.043089                       # average overall mshr miss latency
system.l2.overall_avg_mshr_miss_latency::cpu0.data 84974.043089                       # average overall mshr miss latency
system.l2.overall_avg_mshr_miss_latency::total 84974.043089                       # average overall mshr miss latency
system.membus.snoop_filter.tot_requests        379394                       # Total number of requests made to the snoop filter.
system.membus.snoop_filter.hit_single_requests       189697                       # Number of requests hitting in the snoop filter with a single holder of the requested data.
system.membus.snoop_filter.hit_multi_requests            0                       # Number of requests hitting in the snoop filter with multiple (>1) holders of the requested data.
system.membus.snoop_filter.tot_snoops               0                       # Total number of snoops made to the snoop filter.
system.membus.snoop_filter.hit_single_snoops            0                       # Number of snoops hitting in the snoop filter with a single holder of the requested data.
system.membus.snoop_filter.hit_multi_snoops            0                       # Number of snoops hitting in the snoop filter with multiple (>1) holders of the requested data.
system.membus.pwrStateResidencyTicks::UNDEFINED  15267344125                       # Cumulative time (in ticks) in various power states
system.membus.trans_dist::ReadResp             189496                       # Transaction distribution
system.membus.trans_dist::WritebackDirty          304                       # Transaction distribution
system.membus.trans_dist::CleanEvict           189391                       # Transaction distribution
system.membus.trans_dist::ReadExReq               202                       # Transaction distribution
system.membus.trans_dist::ReadExResp              202                       # Transaction distribution
system.membus.trans_dist::ReadSharedReq        189497                       # Transaction distribution
system.membus.pkt_count_system.l2.mem_side::system.mem_ctrls.port       569092                       # Packet count per connected master and slave (bytes)
system.membus.pkt_count_system.l2.mem_side::total       569092                       # Packet count per connected master and slave (bytes)
system.membus.pkt_count::total                 569092                       # Packet count per connected master and slave (bytes)
system.membus.pkt_size_system.l2.mem_side::system.mem_ctrls.port     12160128                       # Cumulative packet size per connected master and slave (bytes)
system.membus.pkt_size_system.l2.mem_side::total     12160128                       # Cumulative packet size per connected master and slave (bytes)
system.membus.pkt_size::total                12160128                       # Cumulative packet size per connected master and slave (bytes)
system.membus.snoops                                0                       # Total snoops (count)
system.membus.snoopTraffic                          0                       # Total snoop traffic (bytes)
system.membus.snoop_fanout::samples            189699                       # Request fanout histogram
system.membus.snoop_fanout::mean                    0                       # Request fanout histogram
system.membus.snoop_fanout::stdev                   0                       # Request fanout histogram
system.membus.snoop_fanout::underflows              0      0.00%      0.00% # Request fanout histogram
system.membus.snoop_fanout::0                  189699    100.00%    100.00% # Request fanout histogram
system.membus.snoop_fanout::1                       0      0.00%    100.00% # Request fanout histogram
system.membus.snoop_fanout::overflows               0      0.00%    100.00% # Request fanout histogram
system.membus.snoop_fanout::min_value               0                       # Request fanout histogram
system.membus.snoop_fanout::max_value               0                       # Request fanout histogram
system.membus.snoop_fanout::total              189699                       # Request fanout histogram
system.membus.reqLayer8.occupancy           446463000                       # Layer occupancy (ticks)
system.membus.reqLayer8.utilization               2.9                       # Layer utilization (%)
system.membus.respLayer1.occupancy         1026901000                       # Layer occupancy (ticks)
system.membus.respLayer1.utilization              6.7                       # Layer utilization (%)
system.tol2bus.snoop_filter.tot_requests       538881                       # Total number of requests made to the snoop filter.
system.tol2bus.snoop_filter.hit_single_requests       269439                       # Number of requests hitting in the snoop filter with a single holder of the requested data.
system.tol2bus.snoop_filter.hit_multi_requests          632                       # Number of requests hitting in the snoop filter with multiple (>1) holders of the requested data.
system.tol2bus.snoop_filter.tot_snoops              3                       # Total number of snoops made to the snoop filter.
system.tol2bus.snoop_filter.hit_single_snoops            3                       # Number of snoops hitting in the snoop filter with a single holder of the requested data.
system.tol2bus.snoop_filter.hit_multi_snoops            0                       # Number of snoops hitting in the snoop filter with multiple (>1) holders of the requested data.
system.tol2bus.pwrStateResidencyTicks::UNDEFINED  15267344125                       # Cumulative time (in ticks) in various power states
system.tol2bus.trans_dist::ReadResp            268575                       # Transaction distribution
system.tol2bus.trans_dist::WritebackDirty         2751                       # Transaction distribution
system.tol2bus.trans_dist::CleanEvict          456388                       # Transaction distribution
system.tol2bus.trans_dist::ReadExReq              866                       # Transaction distribution
system.tol2bus.trans_dist::ReadExResp             866                       # Transaction distribution
system.tol2bus.trans_dist::ReadSharedReq       268574                       # Transaction distribution
system.tol2bus.pkt_count_system.cpu0.dcache.mem_side::system.l2.cpu_side       808322                       # Packet count per connected master and slave (bytes)
system.tol2bus.pkt_count::total                808322                       # Packet count per connected master and slave (bytes)
system.tol2bus.pkt_size_system.cpu0.dcache.mem_side::system.l2.cpu_side     17400832                       # Cumulative packet size per connected master and slave (bytes)
system.tol2bus.pkt_size::total               17400832                       # Cumulative packet size per connected master and slave (bytes)
system.tol2bus.snoops                          189698                       # Total snoops (count)
system.tol2bus.snoopTraffic                     19456                       # Total snoop traffic (bytes)
system.tol2bus.snoop_fanout::samples           459138                       # Request fanout histogram
system.tol2bus.snoop_fanout::mean            0.001379                       # Request fanout histogram
system.tol2bus.snoop_fanout::stdev           0.037105                       # Request fanout histogram
system.tol2bus.snoop_fanout::underflows             0      0.00%      0.00% # Request fanout histogram
system.tol2bus.snoop_fanout::0                 458505     99.86%     99.86% # Request fanout histogram
system.tol2bus.snoop_fanout::1                    633      0.14%    100.00% # Request fanout histogram
system.tol2bus.snoop_fanout::2                      0      0.00%    100.00% # Request fanout histogram
system.tol2bus.snoop_fanout::3                      0      0.00%    100.00% # Request fanout histogram
system.tol2bus.snoop_fanout::4                      0      0.00%    100.00% # Request fanout histogram
system.tol2bus.snoop_fanout::5                      0      0.00%    100.00% # Request fanout histogram
system.tol2bus.snoop_fanout::6                      0      0.00%    100.00% # Request fanout histogram
system.tol2bus.snoop_fanout::7                      0      0.00%    100.00% # Request fanout histogram
system.tol2bus.snoop_fanout::8                      0      0.00%    100.00% # Request fanout histogram
system.tol2bus.snoop_fanout::9                      0      0.00%    100.00% # Request fanout histogram
system.tol2bus.snoop_fanout::10                     0      0.00%    100.00% # Request fanout histogram
system.tol2bus.snoop_fanout::11                     0      0.00%    100.00% # Request fanout histogram
system.tol2bus.snoop_fanout::12                     0      0.00%    100.00% # Request fanout histogram
system.tol2bus.snoop_fanout::13                     0      0.00%    100.00% # Request fanout histogram
system.tol2bus.snoop_fanout::14                     0      0.00%    100.00% # Request fanout histogram
system.tol2bus.snoop_fanout::15                     0      0.00%    100.00% # Request fanout histogram
system.tol2bus.snoop_fanout::16                     0      0.00%    100.00% # Request fanout histogram
system.tol2bus.snoop_fanout::overflows              0      0.00%    100.00% # Request fanout histogram
system.tol2bus.snoop_fanout::min_value              0                       # Request fanout histogram
system.tol2bus.snoop_fanout::max_value              1                       # Request fanout histogram
system.tol2bus.snoop_fanout::total             459138                       # Request fanout histogram
system.tol2bus.reqLayer0.occupancy          271887500                       # Layer occupancy (ticks)
system.tol2bus.reqLayer0.utilization              1.8                       # Layer utilization (%)
system.tol2bus.respLayer1.occupancy         404161500                       # Layer occupancy (ticks)
system.tol2bus.respLayer1.utilization             2.6                       # Layer utilization (%)

---------- End Simulation Statistics   ----------
