
---------- Begin Simulation Statistics ----------
sim_seconds                                  0.015267                       # Number of seconds simulated
sim_ticks                                 15267344125                       # Number of ticks simulated
final_tick                               1755744574375                       # Number of ticks from beginning of simulation (restored from checkpoints and never reset)
sim_freq                                 1000000000000                       # Frequency of simulated ticks
host_inst_rate                               13283708                       # Simulator instruction rate (inst/s)
host_op_rate                                 24157569                       # Simulator op (including micro ops) rate (op/s)
host_tick_rate                               51359979                       # Simulator tick rate (ticks/s)
host_mem_usage                                2332532                       # Number of bytes of host memory used
host_seconds                                   297.26                       # Real time elapsed on the host
sim_insts                                  3948734786                       # Number of instructions simulated
sim_ops                                    7181114868                       # Number of ops (including micro ops) simulated
system.voltage_domain.voltage                       1                       # Voltage in Volts
system.clk_domain.clock                          1000                       # Clock period in ticks
system.mem_ctrls.pwrStateResidencyTicks::UNDEFINED  15267344125                       # Cumulative time (in ticks) in various power states
system.mem_ctrls.bytes_read::cpu0.data         910592                       # Number of bytes read from this memory
system.mem_ctrls.bytes_read::total             910592                       # Number of bytes read from this memory
system.mem_ctrls.bytes_written::writebacks       861824                       # Number of bytes written to this memory
system.mem_ctrls.bytes_written::total          861824                       # Number of bytes written to this memory
system.mem_ctrls.num_reads::cpu0.data           14228                       # Number of read requests responded to by this memory
system.mem_ctrls.num_reads::total               14228                       # Number of read requests responded to by this memory
system.mem_ctrls.num_writes::writebacks         13466                       # Number of write requests responded to by this memory
system.mem_ctrls.num_writes::total              13466                       # Number of write requests responded to by this memory
system.mem_ctrls.bw_read::cpu0.data          59643118                       # Total read bandwidth from this memory (bytes/s)
system.mem_ctrls.bw_read::total              59643118                       # Total read bandwidth from this memory (bytes/s)
system.mem_ctrls.bw_write::writebacks        56448849                       # Write bandwidth from this memory (bytes/s)
system.mem_ctrls.bw_write::total             56448849                       # Write bandwidth from this memory (bytes/s)
system.mem_ctrls.bw_total::writebacks        56448849                       # Total bandwidth to/from this memory (bytes/s)
system.mem_ctrls.bw_total::cpu0.data         59643118                       # Total bandwidth to/from this memory (bytes/s)
system.mem_ctrls.bw_total::total            116091966                       # Total bandwidth to/from this memory (bytes/s)
system.mem_ctrls.readReqs                       14228                       # Number of read requests accepted
system.mem_ctrls.writeReqs                      13466                       # Number of write requests accepted
system.mem_ctrls.readBursts                     14228                       # Number of DRAM read bursts, including those serviced by the write queue
system.mem_ctrls.writeBursts                    13466                       # Number of DRAM write bursts, including those merged in the write queue
system.mem_ctrls.bytesReadDRAM                 910592                       # Total number of bytes read from DRAM
system.mem_ctrls.bytesReadWrQ                       0                       # Total number of bytes read from write queue
system.mem_ctrls.bytesWritten                  862208                       # Total number of bytes written to DRAM
system.mem_ctrls.bytesReadSys                  910592                       # Total read bytes from the system interface side
system.mem_ctrls.bytesWrittenSys               861824                       # Total written bytes from the system interface side
system.mem_ctrls.servicedByWrQ                      0                       # Number of DRAM read bursts serviced by the write queue
system.mem_ctrls.mergedWrBursts                     0                       # Number of DRAM write bursts merged with an existing one
system.mem_ctrls.neitherReadNorWriteReqs            0                       # Number of requests that are neither read nor write
system.mem_ctrls.perBankRdBursts::0               855                       # Per bank write bursts
system.mem_ctrls.perBankRdBursts::1               984                       # Per bank write bursts
system.mem_ctrls.perBankRdBursts::2              1029                       # Per bank write bursts
system.mem_ctrls.perBankRdBursts::3              1044                       # Per bank write bursts
system.mem_ctrls.perBankRdBursts::4              1047                       # Per bank write bursts
system.mem_ctrls.perBankRdBursts::5              1024                       # Per bank write bursts
system.mem_ctrls.perBankRdBursts::6              1024                       # Per bank write bursts
system.mem_ctrls.perBankRdBursts::7               932                       # Per bank write bursts
system.mem_ctrls.perBankRdBursts::8               846                       # Per bank write bursts
system.mem_ctrls.perBankRdBursts::9               791                       # Per bank write bursts
system.mem_ctrls.perBankRdBursts::10              790                       # Per bank write bursts
system.mem_ctrls.perBankRdBursts::11              768                       # Per bank write bursts
system.mem_ctrls.perBankRdBursts::12              768                       # Per bank write bursts
system.mem_ctrls.perBankRdBursts::13              768                       # Per bank write bursts
system.mem_ctrls.perBankRdBursts::14              768                       # Per bank write bursts
system.mem_ctrls.perBankRdBursts::15              790                       # Per bank write bursts
system.mem_ctrls.perBankWrBursts::0               731                       # Per bank write bursts
system.mem_ctrls.perBankWrBursts::1               878                       # Per bank write bursts
system.mem_ctrls.perBankWrBursts::2               902                       # Per bank write bursts
system.mem_ctrls.perBankWrBursts::3               915                       # Per bank write bursts
system.mem_ctrls.perBankWrBursts::4               930                       # Per bank write bursts
system.mem_ctrls.perBankWrBursts::5              1024                       # Per bank write bursts
system.mem_ctrls.perBankWrBursts::6              1024                       # Per bank write bursts
system.mem_ctrls.perBankWrBursts::7               914                       # Per bank write bursts
system.mem_ctrls.perBankWrBursts::8               844                       # Per bank write bursts
system.mem_ctrls.perBankWrBursts::9               770                       # Per bank write bursts
system.mem_ctrls.perBankWrBursts::10              790                       # Per bank write bursts
system.mem_ctrls.perBankWrBursts::11              768                       # Per bank write bursts
system.mem_ctrls.perBankWrBursts::12              768                       # Per bank write bursts
system.mem_ctrls.perBankWrBursts::13              768                       # Per bank write bursts
system.mem_ctrls.perBankWrBursts::14              747                       # Per bank write bursts
system.mem_ctrls.perBankWrBursts::15              699                       # Per bank write bursts
system.mem_ctrls.numRdRetry                         0                       # Number of times read queue was full causing retry
system.mem_ctrls.numWrRetry                         0                       # Number of times write queue was full causing retry
system.mem_ctrls.totGap                   15267602000                       # Total gap between requests
system.mem_ctrls.readPktSize::0                     0                       # Read request sizes (log2)
system.mem_ctrls.readPktSize::1                     0                       # Read request sizes (log2)
system.mem_ctrls.readPktSize::2                     0                       # Read request sizes (log2)
system.mem_ctrls.readPktSize::3                     0                       # Read request sizes (log2)
system.mem_ctrls.readPktSize::4                     0                       # Read request sizes (log2)
system.mem_ctrls.readPktSize::5                     0                       # Read request sizes (log2)
system.mem_ctrls.readPktSize::6                 14228                       # Read request sizes (log2)
system.mem_ctrls.writePktSize::0                    0                       # Write request sizes (log2)
system.mem_ctrls.writePktSize::1                    0                       # Write request sizes (log2)
system.mem_ctrls.writePktSize::2                    0                       # Write request sizes (log2)
system.mem_ctrls.writePktSize::3                    0                       # Write request sizes (log2)
system.mem_ctrls.writePktSize::4                    0                       # Write request sizes (log2)
system.mem_ctrls.writePktSize::5                    0                       # Write request sizes (log2)
system.mem_ctrls.writePktSize::6                13466                       # Write request sizes (log2)
system.mem_ctrls.rdQLenPdf::0                   14228                       # What read queue length does an incoming req see
system.mem_ctrls.rdQLenPdf::1                       0                       # What read queue length does an incoming req see
system.mem_ctrls.rdQLenPdf::2                       0                       # What read queue length does an incoming req see
system.mem_ctrls.rdQLenPdf::3                       0                       # What read queue length does an incoming req see
system.mem_ctrls.rdQLenPdf::4                       0                       # What read queue length does an incoming req see
system.mem_ctrls.rdQLenPdf::5                       0                       # What read queue length does an incoming req see
system.mem_ctrls.rdQLenPdf::6                       0                       # What read queue length does an incoming req see
system.mem_ctrls.rdQLenPdf::7                       0                       # What read queue length does an incoming req see
system.mem_ctrls.rdQLenPdf::8                       0                       # What read queue length does an incoming req see
system.mem_ctrls.rdQLenPdf::9                       0                       # What read queue length does an incoming req see
system.mem_ctrls.rdQLenPdf::10                      0                       # What read queue length does an incoming req see
system.mem_ctrls.rdQLenPdf::11                      0                       # What read queue length does an incoming req see
system.mem_ctrls.rdQLenPdf::12                      0                       # What read queue length does an incoming req see
system.mem_ctrls.rdQLenPdf::13                      0                       # What read queue length does an incoming req see
system.mem_ctrls.rdQLenPdf::14                      0                       # What read queue length does an incoming req see
system.mem_ctrls.rdQLenPdf::15                      0                       # What read queue length does an incoming req see
system.mem_ctrls.rdQLenPdf::16                      0                       # What read queue length does an incoming req see
system.mem_ctrls.rdQLenPdf::17                      0                       # What read queue length does an incoming req see
system.mem_ctrls.rdQLenPdf::18                      0                       # What read queue length does an incoming req see
system.mem_ctrls.rdQLenPdf::19                      0                       # What read queue length does an incoming req see
system.mem_ctrls.rdQLenPdf::20                      0                       # What read queue length does an incoming req see
system.mem_ctrls.rdQLenPdf::21                      0                       # What read queue length does an incoming req see
system.mem_ctrls.rdQLenPdf::22                      0                       # What read queue length does an incoming req see
system.mem_ctrls.rdQLenPdf::23                      0                       # What read queue length does an incoming req see
system.mem_ctrls.rdQLenPdf::24                      0                       # What read queue length does an incoming req see
system.mem_ctrls.rdQLenPdf::25                      0                       # What read queue length does an incoming req see
system.mem_ctrls.rdQLenPdf::26                      0                       # What read queue length does an incoming req see
system.mem_ctrls.rdQLenPdf::27                      0                       # What read queue length does an incoming req see
system.mem_ctrls.rdQLenPdf::28                      0                       # What read queue length does an incoming req see
system.mem_ctrls.rdQLenPdf::29                      0                       # What read queue length does an incoming req see
system.mem_ctrls.rdQLenPdf::30                      0                       # What read queue length does an incoming req see
system.mem_ctrls.rdQLenPdf::31                      0                       # What read queue length does an incoming req see
system.mem_ctrls.wrQLenPdf::0                       0                       # What write queue length does an incoming req see
system.mem_ctrls.wrQLenPdf::1                       0                       # What write queue length does an incoming req see
system.mem_ctrls.wrQLenPdf::2                       0                       # What write queue length does an incoming req see
system.mem_ctrls.wrQLenPdf::3                       0                       # What write queue length does an incoming req see
system.mem_ctrls.wrQLenPdf::4                       0                       # What write queue length does an incoming req see
system.mem_ctrls.wrQLenPdf::5                       0                       # What write queue length does an incoming req see
system.mem_ctrls.wrQLenPdf::6                       0                       # What write queue length does an incoming req see
system.mem_ctrls.wrQLenPdf::7                       0                       # What write queue length does an incoming req see
system.mem_ctrls.wrQLenPdf::8                       0                       # What write queue length does an incoming req see
system.mem_ctrls.wrQLenPdf::9                       0                       # What write queue length does an incoming req see
system.mem_ctrls.wrQLenPdf::10                      0                       # What write queue length does an incoming req see
system.mem_ctrls.wrQLenPdf::11                      0                       # What write queue length does an incoming req see
system.mem_ctrls.wrQLenPdf::12                      0                       # What write queue length does an incoming req see
system.mem_ctrls.wrQLenPdf::13                      0                       # What write queue length does an incoming req see
system.mem_ctrls.wrQLenPdf::14                      0                       # What write queue length does an incoming req see
system.mem_ctrls.wrQLenPdf::15                    736                       # What write queue length does an incoming req see
system.mem_ctrls.wrQLenPdf::16                    736                       # What write queue length does an incoming req see
system.mem_ctrls.wrQLenPdf::17                    750                       # What write queue length does an incoming req see
system.mem_ctrls.wrQLenPdf::18                    750                       # What write queue length does an incoming req see
system.mem_ctrls.wrQLenPdf::19                    750                       # What write queue length does an incoming req see
system.mem_ctrls.wrQLenPdf::20                    750                       # What write queue length does an incoming req see
system.mem_ctrls.wrQLenPdf::21                    749                       # What write queue length does an incoming req see
system.mem_ctrls.wrQLenPdf::22                    749                       # What write queue length does an incoming req see
system.mem_ctrls.wrQLenPdf::23                    749                       # What write queue length does an incoming req see
system.mem_ctrls.wrQLenPdf::24                    749                       # What write queue length does an incoming req see
system.mem_ctrls.wrQLenPdf::25                    749                       # What write queue length does an incoming req see
system.mem_ctrls.wrQLenPdf::26                    749                       # What write queue length does an incoming req see
system.mem_ctrls.wrQLenPdf::27                    750                       # What write queue length does an incoming req see
system.mem_ctrls.wrQLenPdf::28                    750                       # What write queue length does an incoming req see
system.mem_ctrls.wrQLenPdf::29                    750                       # What write queue length does an incoming req see
system.mem_ctrls.wrQLenPdf::30                    750                       # What write queue length does an incoming req see
system.mem_ctrls.wrQLenPdf::31                    750                       # What write queue length does an incoming req see
system.mem_ctrls.wrQLenPdf::32                    750                       # What write queue length does an incoming req see
system.mem_ctrls.wrQLenPdf::33                      0                       # What write queue length does an incoming req see
system.mem_ctrls.wrQLenPdf::34                      0                       # What write queue length does an incoming req see
system.mem_ctrls.wrQLenPdf::35                      0                       # What write queue length does an incoming req see
system.mem_ctrls.wrQLenPdf::36                      0                       # What write queue length does an incoming req see
system.mem_ctrls.wrQLenPdf::37                      0                       # What write queue length does an incoming req see
system.mem_ctrls.wrQLenPdf::38                      0                       # What write queue length does an incoming req see
system.mem_ctrls.wrQLenPdf::39                      0                       # What write queue length does an incoming req see
system.mem_ctrls.wrQLenPdf::40                      0                       # What write queue length does an incoming req see
system.mem_ctrls.wrQLenPdf::41                      0                       # What write queue length does an incoming req see
system.mem_ctrls.wrQLenPdf::42                      0                       # What write queue length does an incoming req see
system.mem_ctrls.wrQLenPdf::43                      0                       # What write queue length does an incoming req see
system.mem_ctrls.wrQLenPdf::44                      0                       # What write queue length does an incoming req see
system.mem_ctrls.wrQLenPdf::45                      0                       # What write queue length does an incoming req see
system.mem_ctrls.wrQLenPdf::46                      0                       # What write queue length does an incoming req see
system.mem_ctrls.wrQLenPdf::47                      0                       # What write queue length does an incoming req see
system.mem_ctrls.wrQLenPdf::48                      0                       # What write queue length does an incoming req see
system.mem_ctrls.wrQLenPdf::49                      0                       # What write queue length does an incoming req see
system.mem_ctrls.wrQLenPdf::50                      0                       # What write queue length does an incoming req see
system.mem_ctrls.wrQLenPdf::51                      0                       # What write queue length does an incoming req see
system.mem_ctrls.wrQLenPdf::52                      0                       # What write queue length does an incoming req see
system.mem_ctrls.wrQLenPdf::53                      0                       # What write queue length does an incoming req see
system.mem_ctrls.wrQLenPdf::54                      0                       # What write queue length does an incoming req see
system.mem_ctrls.wrQLenPdf::55                      0                       # What write queue length does an incoming req see
system.mem_ctrls.wrQLenPdf::56                      0                       # What write queue length does an incoming req see
system.mem_ctrls.wrQLenPdf::57                      0                       # What write queue length does an incoming req see
system.mem_ctrls.wrQLenPdf::58                      0                       # What write queue length does an incoming req see
system.mem_ctrls.wrQLenPdf::59                      0                       # What write queue length does an incoming req see
system.mem_ctrls.wrQLenPdf::60                      0                       # What write queue length does an incoming req see
system.mem_ctrls.wrQLenPdf::61                      0                       # What write queue length does an incoming req see
system.mem_ctrls.wrQLenPdf::62                      0                       # What write queue length does an incoming req see
system.mem_ctrls.wrQLenPdf::63                      0                       # What write queue length does an incoming req see
system.mem_ctrls.bytesPerActivate::samples         5992                       # Bytes accessed per row activation
system.mem_ctrls.bytesPerActivate::mean    295.839786                       # Bytes accessed per row activation
system.mem_ctrls.bytesPerActivate::gmean   182.576815                       # Bytes accessed per row activation
system.mem_ctrls.bytesPerActivate::stdev   293.677483                       # Bytes accessed per row activation
system.mem_ctrls.bytesPerActivate::0-127         2431     40.57%     40.57% # Bytes accessed per row activation
system.mem_ctrls.bytesPerActivate::128-255          785     13.10%     53.67% # Bytes accessed per row activation
system.mem_ctrls.bytesPerActivate::256-383          584      9.75%     63.42% # Bytes accessed per row activation
system.mem_ctrls.bytesPerActivate::384-511         1438     24.00%     87.42% # Bytes accessed per row activation
system.mem_ctrls.bytesPerActivate::512-639           29      0.48%     87.90% # Bytes accessed per row activation
system.mem_ctrls.bytesPerActivate::640-767           51      0.85%     88.75% # Bytes accessed per row activation
system.mem_ctrls.bytesPerActivate::768-895           44      0.73%     89.49% # Bytes accessed per row activation
system.mem_ctrls.bytesPerActivate::896-1023           82      1.37%     90.85% # Bytes accessed per row activation
system.mem_ctrls.bytesPerActivate::1024-1151          548      9.15%    100.00% # Bytes accessed per row activation
system.mem_ctrls.bytesPerActivate::total         5992                       # Bytes accessed per row activation
system.mem_ctrls.rdPerTurnAround::samples          750                       # Reads before turning the bus around for writes
system.mem_ctrls.rdPerTurnAround::mean      18.978667                       # Reads before turning the bus around for writes
system.mem_ctrls.rdPerTurnAround::gmean     18.292581                       # Reads before turning the bus around for writes
system.mem_ctrls.rdPerTurnAround::stdev     12.085126                       # Reads before turning the bus around for writes
system.mem_ctrls.rdPerTurnAround::16-23           738     98.40%     98.40% # Reads before turning the bus around for writes
system.mem_ctrls.rdPerTurnAround::24-31             6      0.80%     99.20% # Reads before turning the bus around for writes
system.mem_ctrls.rdPerTurnAround::64-71             2      0.27%     99.47% # Reads before turning the bus around for writes
system.mem_ctrls.rdPerTurnAround::72-79             1      0.13%     99.60% # Reads before turning the bus around for writes
system.mem_ctrls.rdPerTurnAround::184-191            1      0.13%     99.73% # Reads before turning the bus around for writes
system.mem_ctrls.rdPerTurnAround::200-207            2      0.27%    100.00% # Reads before turning the bus around for writes
system.mem_ctrls.rdPerTurnAround::total           750                       # Reads before turning the bus around for writes
system.mem_ctrls.wrPerTurnAround::samples          750                       # Writes before turning the bus around for reads
system.mem_ctrls.wrPerTurnAround::mean      17.962667                       # Writes before turning the bus around for reads
system.mem_ctrls.wrPerTurnAround::gmean     17.960468                       # Writes before turning the bus around for reads
system.mem_ctrls.wrPerTurnAround::stdev      0.270870                       # Writes before turning the bus around for reads
system.mem_ctrls.wrPerTurnAround::16               14      1.87%      1.87% # Writes before turning the bus around for reads
system.mem_ctrls.wrPerTurnAround::18              736     98.13%    100.00% # Writes before turning the bus around for reads
system.mem_ctrls.wrPerTurnAround::total           750                       # Writes before turning the bus around for reads
system.mem_ctrls.totQLat                    341397000                       # Total ticks spent queuing
system.mem_ctrls.totMemAccLat               608172000                       # Total ticks spent from burst creation until serviced by the DRAM
system.mem_ctrls.totBusLat                   71140000                       # Total ticks spent in databus transfers
system.mem_ctrls.avgQLat                     23994.73                       # Average queueing delay per DRAM burst
system.mem_ctrls.avgBusLat                    5000.00                       # Average bus latency per DRAM burst
system.mem_ctrls.avgMemAccLat                42744.73                       # Average memory access latency per DRAM burst
system.mem_ctrls.avgRdBW                        59.64                       # Average DRAM read bandwidth in MiByte/s
system.mem_ctrls.avgWrBW                        56.47                       # Average achieved write bandwidth in MiByte/s
system.mem_ctrls.avgRdBWSys                     59.64                       # Average system read bandwidth in MiByte/s
system.mem_ctrls.avgWrBWSys                     56.45                       # Average system write bandwidth in MiByte/s
system.mem_ctrls.peakBW                      12800.00                       # Theoretical peak bandwidth in MiByte/s
system.mem_ctrls.busUtil                         0.91                       # Data bus utilization in percentage
system.mem_ctrls.busUtilRead                     0.47                       # Data bus utilization in percentage for reads
system.mem_ctrls.busUtilWrite                    0.44                       # Data bus utilization in percentage for writes
system.mem_ctrls.avgRdQLen                       1.00                       # Average read queue length when enqueuing
system.mem_ctrls.avgWrQLen                      24.62                       # Average write queue length when enqueuing
system.mem_ctrls.readRowHits                    10316                       # Number of row buffer hits during reads
system.mem_ctrls.writeRowHits                   11389                       # Number of row buffer hits during writes
system.mem_ctrls.readRowHitRate                 72.50                       # Row buffer hit rate for reads
system.mem_ctrls.writeRowHitRate                84.58                       # Row buffer hit rate for writes
system.mem_ctrls.avgGap                     551296.38                       # Average gap between requests
system.mem_ctrls.pageHitRate                    78.37                       # Row buffer hit rate, read and write combined
system.mem_ctrls_0.actEnergy                 27524700                       # Energy for activate commands per rank (pJ)
system.mem_ctrls_0.preEnergy                 14625930                       # Energy for precharge commands per rank (pJ)
system.mem_ctrls_0.readEnergy                56684460                       # Energy for read commands per rank (pJ)
system.mem_ctrls_0.writeEnergy               38199960                       # Energy for write commands per rank (pJ)
system.mem_ctrls_0.refreshEnergy         1267387680.000000                       # Energy for refresh commands per rank (pJ)
system.mem_ctrls_0.actBackEnergy            777135720                       # Energy for active background per rank (pJ)
system.mem_ctrls_0.preBackEnergy             56256000                       # Energy for precharge background per rank (pJ)
system.mem_ctrls_0.actPowerDownEnergy      3890264250                       # Energy for active power-down per rank (pJ)
system.mem_ctrls_0.prePowerDownEnergy      1354065120                       # Energy for precharge power-down per rank (pJ)
system.mem_ctrls_0.selfRefreshEnergy        489648540                       # Energy for self refresh per rank (pJ)
system.mem_ctrls_0.totalEnergy             7972238010                       # Total energy per rank (pJ)
system.mem_ctrls_0.averagePower            522.175825                       # Core power per rank (mW)
system.mem_ctrls_0.totalIdleTime          13415636000                       # Total Idle time Per DRAM Rank
system.mem_ctrls_0.memoryStateTime::IDLE     93195750                       # Time in different power states
system.mem_ctrls_0.memoryStateTime::REF     537908000                       # Time in different power states
system.mem_ctrls_0.memoryStateTime::SREF   1358110250                       # Time in different power states
system.mem_ctrls_0.memoryStateTime::PRE_PDN   3526247250                       # Time in different power states
system.mem_ctrls_0.memoryStateTime::ACT    1220452750                       # Time in different power states
system.mem_ctrls_0.memoryStateTime::ACT_PDN   8531430125                       # Time in different power states
system.mem_ctrls_1.actEnergy                 15279600                       # Energy for activate commands per rank (pJ)
system.mem_ctrls_1.preEnergy                  8113710                       # Energy for precharge commands per rank (pJ)
system.mem_ctrls_1.readEnergy                44903460                       # Energy for read commands per rank (pJ)
system.mem_ctrls_1.writeEnergy               32123880                       # Energy for write commands per rank (pJ)
system.mem_ctrls_1.refreshEnergy         974819040.000000                       # Energy for refresh commands per rank (pJ)
system.mem_ctrls_1.actBackEnergy            475848540                       # Energy for active background per rank (pJ)
system.mem_ctrls_1.preBackEnergy             49930560                       # Energy for precharge background per rank (pJ)
system.mem_ctrls_1.actPowerDownEnergy      2952048810                       # Energy for active power-down per rank (pJ)
system.mem_ctrls_1.prePowerDownEnergy       999870240                       # Energy for precharge power-down per rank (pJ)
system.mem_ctrls_1.selfRefreshEnergy       1363477860                       # Energy for self refresh per rank (pJ)
system.mem_ctrls_1.totalEnergy             6916620780                       # Total energy per rank (pJ)
system.mem_ctrls_1.averagePower            453.033660                       # Core power per rank (mW)
system.mem_ctrls_1.totalIdleTime          14093245500                       # Total Idle time Per DRAM Rank
system.mem_ctrls_1.memoryStateTime::IDLE     84258000                       # Time in different power states
system.mem_ctrls_1.memoryStateTime::REF     414094000                       # Time in different power states
system.mem_ctrls_1.memoryStateTime::SREF   5015715250                       # Time in different power states
system.mem_ctrls_1.memoryStateTime::PRE_PDN   2603904500                       # Time in different power states
system.mem_ctrls_1.memoryStateTime::ACT     675746625                       # Time in different power states
system.mem_ctrls_1.memoryStateTime::ACT_PDN   6473625750                       # Time in different power states
system.pwrStateResidencyTicks::UNDEFINED  15267344125                       # Cumulative time (in ticks) in various power states
system.cpu0.branchPred.lookups                5255515                       # Number of BP lookups
system.cpu0.branchPred.condPredicted          5255515                       # Number of conditional branches predicted
system.cpu0.branchPred.condIncorrect           108702                       # Number of conditional branches incorrect
system.cpu0.branchPred.BTBLookups             3573646                       # Number of BTB lookups
system.cpu0.branchPred.BTBHits                      0                       # Number of BTB hits
system.cpu0.branchPred.BTBCorrect                   0                       # Number of correct BTB predictions (this stat may not work properly.
system.cpu0.branchPred.BTBHitPct             0.000000                       # BTB Hit Percentage
system.cpu0.branchPred.usedRAS                 731520                       # Number of times the RAS was used to get a target.
system.cpu0.branchPred.RASInCorrect                 1                       # Number of incorrect RAS predictions.
system.cpu0.branchPred.indirectLookups        3573646                       # Number of indirect predictor lookups.
system.cpu0.branchPred.indirectHits           2515337                       # Number of indirect target hits.
system.cpu0.branchPred.indirectMisses         1058309                       # Number of indirect misses.
system.cpu0.branchPredindirectMispredicted            9                       # Number of mispredicted indirect branches.
system.cpu_voltage_domain.voltage                   1                       # Voltage in Volts
system.cpu_clk_domain.clock                       500                       # Clock period in ticks
system.cpu0.dtb.walker.pwrStateResidencyTicks::UNDEFINED  15267344125                       # Cumulative time (in ticks) in various power states
system.cpu0.dtb.rdAccesses                    8925569                       # TLB accesses on read requests
system.cpu0.dtb.wrAccesses                    2096755                       # TLB accesses on write requests
system.cpu0.dtb.rdMisses                          232                       # TLB misses on read requests
system.cpu0.dtb.wrMisses                            0                       # TLB misses on write requests
system.cpu0.apic_clk_domain.clock                8000                       # Clock period in ticks
system.cpu0.interrupts.pwrStateResidencyTicks::UNDEFINED  15267344125                       # Cumulative time (in ticks) in various power states
system.cpu0.itb.walker.pwrStateResidencyTicks::UNDEFINED  15267344125                       # Cumulative time (in ticks) in various power states
system.cpu0.itb.rdAccesses                          0                       # TLB accesses on read requests
system.cpu0.itb.wrAccesses                    6279619                       # TLB accesses on write requests
system.cpu0.itb.rdMisses                            0                       # TLB misses on read requests
system.cpu0.itb.wrMisses                            0                       # TLB misses on write requests
system.cpu0.workload.numSyscalls                    0                       # Number of system calls
system.cpu0.pwrStateResidencyTicks::ON    15267344125                       # Cumulative time (in ticks) in various power states
system.cpu0.numCycles                        30534688                       # number of cpu cycles simulated
system.cpu0.numWorkItemsStarted                     0                       # number of work items this cpu started
system.cpu0.numWorkItemsCompleted                   0                       # number of work items this cpu completed
system.cpu0.fetch.icacheStallCycles           6331429                       # Number of cycles fetch is stalled on an Icache miss
system.cpu0.fetch.Insts                      46445877                       # Number of instructions fetch has processed
system.cpu0.fetch.Branches                    5255515                       # Number of branches that fetch encountered
system.cpu0.fetch.predictedBranches           3246857                       # Number of branches that fetch has predicted taken
system.cpu0.fetch.Cycles                     24094455                       # Number of cycles fetch has run and was not squashing or blocked
system.cpu0.fetch.SquashCycles                 217608                       # Number of cycles fetch has spent squashing
system.cpu0.fetch.CacheLines                  6279619                       # Number of cache lines fetched
system.cpu0.fetch.IcacheSquashes                56970                       # Number of outstanding Icache misses that were squashed
system.cpu0.fetch.rateDist::samples          30534688                       # Number of instructions fetched each cycle (Total)
system.cpu0.fetch.rateDist::mean             2.658089                       # Number of instructions fetched each cycle (Total)
system.cpu0.fetch.rateDist::stdev            3.374048                       # Number of instructions fetched each cycle (Total)
system.cpu0.fetch.rateDist::underflows              0      0.00%      0.00% # Number of instructions fetched each cycle (Total)
system.cpu0.fetch.rateDist::0                16783134     54.96%     54.96% # Number of instructions fetched each cycle (Total)
system.cpu0.fetch.rateDist::1                  754280      2.47%     57.43% # Number of instructions fetched each cycle (Total)
system.cpu0.fetch.rateDist::2                 1656143      5.42%     62.86% # Number of instructions fetched each cycle (Total)
system.cpu0.fetch.rateDist::3                  648536      2.12%     64.98% # Number of instructions fetched each cycle (Total)
system.cpu0.fetch.rateDist::4                  949073      3.11%     68.09% # Number of instructions fetched each cycle (Total)
system.cpu0.fetch.rateDist::5                 1523551      4.99%     73.08% # Number of instructions fetched each cycle (Total)
system.cpu0.fetch.rateDist::6                  558591      1.83%     74.91% # Number of instructions fetched each cycle (Total)
system.cpu0.fetch.rateDist::7                  904880      2.96%     77.87% # Number of instructions fetched each cycle (Total)
system.cpu0.fetch.rateDist::8                 6756500     22.13%    100.00% # Number of instructions fetched each cycle (Total)
system.cpu0.fetch.rateDist::overflows               0      0.00%    100.00% # Number of instructions fetched each cycle (Total)
system.cpu0.fetch.rateDist::min_value               0                       # Number of instructions fetched each cycle (Total)
system.cpu0.fetch.rateDist::max_value               8                       # Number of instructions fetched each cycle (Total)
system.cpu0.fetch.rateDist::total            30534688                       # Number of instructions fetched each cycle (Total)
system.cpu0.fetch.branchRate                 0.172116                       # Number of branch fetches per cycle
system.cpu0.fetch.rate                       1.521086                       # Number of inst fetches per cycle
system.cpu0.decode.IdleCycles                 4131189                       # Number of cycles decode is idle
system.cpu0.decode.BlockedCycles             15752325                       # Number of cycles decode is blocked
system.cpu0.decode.RunCycles                  6219576                       # Number of cycles decode is running
system.cpu0.decode.UnblockCycles              4322794                       # Number of cycles decode is unblocking
system.cpu0.decode.SquashCycles                108804                       # Number of cycles decode is squashing
system.cpu0.decode.DecodedInsts              77594594                       # Number of instructions handled by decode
system.cpu0.rename.SquashCycles                108804                       # Number of cycles rename is squashing
system.cpu0.rename.IdleCycles                 5841237                       # Number of cycles rename is idle
system.cpu0.rename.BlockCycles                5672346                       # Number of cycles rename is blocking
system.cpu0.rename.serializeStallCycles             0                       # count of cycles rename stalled for serializing inst
system.cpu0.rename.RunCycles                  8773540                       # Number of cycles rename is running
system.cpu0.rename.UnblockCycles             10138761                       # Number of cycles rename is unblocking
system.cpu0.rename.RenamedInsts              77120147                       # Number of instructions processed by rename
system.cpu0.rename.ROBFullEvents               196299                       # Number of times rename has blocked due to ROB full
system.cpu0.rename.IQFullEvents               9064420                       # Number of times rename has blocked due to IQ full
system.cpu0.rename.RenamedOperands           82969474                       # Number of destination operands rename has renamed
system.cpu0.rename.RenameLookups            183175695                       # Number of register rename lookups that rename has made
system.cpu0.rename.int_rename_lookups        60297177                       # Number of integer rename lookups
system.cpu0.rename.fp_rename_lookups         75173136                       # Number of floating rename lookups
system.cpu0.rename.CommittedMaps             70478652                       # Number of HB maps that are committed
system.cpu0.rename.UndoneMaps                12490826                       # Number of HB maps that are undone due to squashing
system.cpu0.rename.serializingInsts                 0                       # count of serializing insts renamed
system.cpu0.rename.tempSerializingInsts             0                       # count of temporary serializing insts renamed
system.cpu0.rename.skidInsts                 23293444                       # count of insts added to the skid buffer
system.cpu0.memDep0.insertedLoads             9519246                       # Number of loads inserted to the mem dependence unit.
system.cpu0.memDep0.insertedStores            2099006                       # Number of stores inserted to the mem dependence unit.
system.cpu0.memDep0.conflictingLoads           425203                       # Number of conflicting loads.
system.cpu0.memDep0.conflictingStores          166119                       # Number of conflicting stores.
system.cpu0.iq.iqInstsAdded                  76445267                       # Number of instructions added to the IQ (excludes non-spec)
system.cpu0.iq.iqInstsIssued                 70780676                       # Number of instructions issued
system.cpu0.iq.iqSquashedInstsExamined       10583733                       # Number of squashed instructions iterated over during squash; mainly for profiling
system.cpu0.iq.iqSquashedOperandsExamined     15243937                       # Number of squashed operands that are examined and possibly removed from graph
system.cpu0.iq.issued_per_cycle::samples     30534688                       # Number of insts issued each cycle
system.cpu0.iq.issued_per_cycle::mean        2.318042                       # Number of insts issued each cycle
system.cpu0.iq.issued_per_cycle::stdev       1.956012                       # Number of insts issued each cycle
system.cpu0.iq.issued_per_cycle::underflows            0      0.00%      0.00% # Number of insts issued each cycle
system.cpu0.iq.issued_per_cycle::0            6316155     20.69%     20.69% # Number of insts issued each cycle
system.cpu0.iq.issued_per_cycle::1            6143425     20.12%     40.80% # Number of insts issued each cycle
system.cpu0.iq.issued_per_cycle::2            5662166     18.54%     59.35% # Number of insts issued each cycle
system.cpu0.iq.issued_per_cycle::3            4844640     15.87%     75.21% # Number of insts issued each cycle
system.cpu0.iq.issued_per_cycle::4            2957704      9.69%     84.90% # Number of insts issued each cycle
system.cpu0.iq.issued_per_cycle::5            1976066      6.47%     91.37% # Number of insts issued each cycle
system.cpu0.iq.issued_per_cycle::6            1647468      5.40%     96.77% # Number of insts issued each cycle
system.cpu0.iq.issued_per_cycle::7             713467      2.34%     99.10% # Number of insts issued each cycle
system.cpu0.iq.issued_per_cycle::8             273597      0.90%    100.00% # Number of insts issued each cycle
system.cpu0.iq.issued_per_cycle::overflows            0      0.00%    100.00% # Number of insts issued each cycle
system.cpu0.iq.issued_per_cycle::min_value            0                       # Number of insts issued each cycle
system.cpu0.iq.issued_per_cycle::max_value            8                       # Number of insts issued each cycle
system.cpu0.iq.issued_per_cycle::total       30534688                       # Number of insts issued each cycle
system.cpu0.iq.fu_full::No_OpClass                  0      0.00%      0.00% # attempts to use FU when none available
system.cpu0.iq.fu_full::IntAlu                     20      0.02%      0.02% # attempts to use FU when none available
system.cpu0.iq.fu_full::IntMult                     0      0.00%      0.02% # attempts to use FU when none available
system.cpu0.iq.fu_full::IntDiv                      0      0.00%      0.02% # attempts to use FU when none available
system.cpu0.iq.fu_full::FloatAdd               106157     99.81%     99.83% # attempts to use FU when none available
system.cpu0.iq.fu_full::FloatCmp                    0      0.00%     99.83% # attempts to use FU when none available
system.cpu0.iq.fu_full::FloatCvt                    0      0.00%     99.83% # attempts to use FU when none available
system.cpu0.iq.fu_full::FloatMult                   0      0.00%     99.83% # attempts to use FU when none available
system.cpu0.iq.fu_full::FloatMultAcc                0      0.00%     99.83% # attempts to use FU when none available
system.cpu0.iq.fu_full::FloatDiv                    0      0.00%     99.83% # attempts to use FU when none available
system.cpu0.iq.fu_full::FloatMisc                   0      0.00%     99.83% # attempts to use FU when none available
system.cpu0.iq.fu_full::FloatSqrt                   0      0.00%     99.83% # attempts to use FU when none available
system.cpu0.iq.fu_full::SimdAdd                     0      0.00%     99.83% # attempts to use FU when none available
system.cpu0.iq.fu_full::SimdAddAcc                  0      0.00%     99.83% # attempts to use FU when none available
system.cpu0.iq.fu_full::SimdAlu                     0      0.00%     99.83% # attempts to use FU when none available
system.cpu0.iq.fu_full::SimdCmp                     0      0.00%     99.83% # attempts to use FU when none available
system.cpu0.iq.fu_full::SimdCvt                     0      0.00%     99.83% # attempts to use FU when none available
system.cpu0.iq.fu_full::SimdMisc                    0      0.00%     99.83% # attempts to use FU when none available
system.cpu0.iq.fu_full::SimdMult                    0      0.00%     99.83% # attempts to use FU when none available
system.cpu0.iq.fu_full::SimdMultAcc                 0      0.00%     99.83% # attempts to use FU when none available
system.cpu0.iq.fu_full::SimdShift                   0      0.00%     99.83% # attempts to use FU when none available
system.cpu0.iq.fu_full::SimdShiftAcc                0      0.00%     99.83% # attempts to use FU when none available
system.cpu0.iq.fu_full::SimdSqrt                    0      0.00%     99.83% # attempts to use FU when none available
system.cpu0.iq.fu_full::SimdFloatAdd                0      0.00%     99.83% # attempts to use FU when none available
system.cpu0.iq.fu_full::SimdFloatAlu                0      0.00%     99.83% # attempts to use FU when none available
system.cpu0.iq.fu_full::SimdFloatCmp                0      0.00%     99.83% # attempts to use FU when none available
system.cpu0.iq.fu_full::SimdFloatCvt                0      0.00%     99.83% # attempts to use FU when none available
system.cpu0.iq.fu_full::SimdFloatDiv                0      0.00%     99.83% # attempts to use FU when none available
system.cpu0.iq.fu_full::SimdFloatMisc               0      0.00%     99.83% # attempts to use FU when none available
system.cpu0.iq.fu_full::SimdFloatMult               0      0.00%     99.83% # attempts to use FU when none available
system.cpu0.iq.fu_full::SimdFloatMultAcc            0      0.00%     99.83% # attempts to use FU when none available
system.cpu0.iq.fu_full::SimdFloatSqrt               0      0.00%     99.83% # attempts to use FU when none available
system.cpu0.iq.fu_full::MemRead                   182      0.17%    100.00% # attempts to use FU when none available
system.cpu0.iq.fu_full::MemWrite                    0      0.00%    100.00% # attempts to use FU when none available
system.cpu0.iq.fu_full::FloatMemRead                0      0.00%    100.00% # attempts to use FU when none available
system.cpu0.iq.fu_full::FloatMemWrite               0      0.00%    100.00% # attempts to use FU when none available
system.cpu0.iq.fu_full::IprAccess                   0      0.00%    100.00% # attempts to use FU when none available
system.cpu0.iq.fu_full::InstPrefetch                0      0.00%    100.00% # attempts to use FU when none available
system.cpu0.iq.FU_type_0::No_OpClass             6204      0.01%      0.01% # Type of FU issued
system.cpu0.iq.FU_type_0::IntAlu             36824609     52.03%     52.04% # Type of FU issued
system.cpu0.iq.FU_type_0::IntMult                   0      0.00%     52.04% # Type of FU issued
system.cpu0.iq.FU_type_0::IntDiv                    0      0.00%     52.04% # Type of FU issued
system.cpu0.iq.FU_type_0::FloatAdd           22952141     32.43%     84.46% # Type of FU issued
system.cpu0.iq.FU_type_0::FloatCmp                  0      0.00%     84.46% # Type of FU issued
system.cpu0.iq.FU_type_0::FloatCvt                  0      0.00%     84.46% # Type of FU issued
system.cpu0.iq.FU_type_0::FloatMult                 0      0.00%     84.46% # Type of FU issued
system.cpu0.iq.FU_type_0::FloatMultAcc              0      0.00%     84.46% # Type of FU issued
system.cpu0.iq.FU_type_0::FloatDiv                  0      0.00%     84.46% # Type of FU issued
system.cpu0.iq.FU_type_0::FloatMisc                 0      0.00%     84.46% # Type of FU issued
system.cpu0.iq.FU_type_0::FloatSqrt                 0      0.00%     84.46% # Type of FU issued
system.cpu0.iq.FU_type_0::SimdAdd                   0      0.00%     84.46% # Type of FU issued
system.cpu0.iq.FU_type_0::SimdAddAcc                0      0.00%     84.46% # Type of FU issued
system.cpu0.iq.FU_type_0::SimdAlu                   0      0.00%     84.46% # Type of FU issued
system.cpu0.iq.FU_type_0::SimdCmp                   0      0.00%     84.46% # Type of FU issued
system.cpu0.iq.FU_type_0::SimdCvt                   0      0.00%     84.46% # Type of FU issued
system.cpu0.iq.FU_type_0::SimdMisc                  0      0.00%     84.46% # Type of FU issued
system.cpu0.iq.FU_type_0::SimdMult                  0      0.00%     84.46% # Type of FU issued
system.cpu0.iq.FU_type_0::SimdMultAcc               0      0.00%     84.46% # Type of FU issued
system.cpu0.iq.FU_type_0::SimdShift                 0      0.00%     84.46% # Type of FU issued
system.cpu0.iq.FU_type_0::SimdShiftAcc              0      0.00%     84.46% # Type of FU issued
system.cpu0.iq.FU_type_0::SimdSqrt                  0      0.00%     84.46% # Type of FU issued
system.cpu0.iq.FU_type_0::SimdFloatAdd              0      0.00%     84.46% # Type of FU issued
system.cpu0.iq.FU_type_0::SimdFloatAlu              0      0.00%     84.46% # Type of FU issued
system.cpu0.iq.FU_type_0::SimdFloatCmp              0      0.00%     84.46% # Type of FU issued
system.cpu0.iq.FU_type_0::SimdFloatCvt              0      0.00%     84.46% # Type of FU issued
system.cpu0.iq.FU_type_0::SimdFloatDiv              0      0.00%     84.46% # Type of FU issued
system.cpu0.iq.FU_type_0::SimdFloatMisc             0      0.00%     84.46% # Type of FU issued
system.cpu0.iq.FU_type_0::SimdFloatMult             0      0.00%     84.46% # Type of FU issued
system.cpu0.iq.FU_type_0::SimdFloatMultAcc            0      0.00%     84.46% # Type of FU issued
system.cpu0.iq.FU_type_0::SimdFloatSqrt             0      0.00%     84.46% # Type of FU issued
system.cpu0.iq.FU_type_0::MemRead             1956695      2.76%     87.23% # Type of FU issued
system.cpu0.iq.FU_type_0::MemWrite            1470758      2.08%     89.30% # Type of FU issued
system.cpu0.iq.FU_type_0::FloatMemRead        6943721      9.81%     99.11% # Type of FU issued
system.cpu0.iq.FU_type_0::FloatMemWrite        626548      0.89%    100.00% # Type of FU issued
system.cpu0.iq.FU_type_0::IprAccess                 0      0.00%    100.00% # Type of FU issued
system.cpu0.iq.FU_type_0::InstPrefetch              0      0.00%    100.00% # Type of FU issued
system.cpu0.iq.FU_type_0::total              70780676                       # Type of FU issued
system.cpu0.iq.rate                          2.318042                       # Inst issue rate
system.cpu0.iq.fu_busy_cnt                     106359                       # FU busy when requested
system.cpu0.iq.fu_busy_rate                  0.001503                       # FU busy rate (busy events/executed inst)
system.cpu0.iq.int_inst_queue_reads          97506957                       # Number of integer instruction queue reads
system.cpu0.iq.int_inst_queue_writes         37537312                       # Number of integer instruction queue writes
system.cpu0.iq.int_inst_queue_wakeup_accesses     33423563                       # Number of integer instruction queue wakeup accesses
system.cpu0.iq.fp_inst_queue_reads           74695442                       # Number of floating instruction queue reads
system.cpu0.iq.fp_inst_queue_writes          49491790                       # Number of floating instruction queue writes
system.cpu0.iq.fp_inst_queue_wakeup_accesses     37152590                       # Number of floating instruction queue wakeup accesses
system.cpu0.iq.vec_inst_queue_reads                 0                       # Number of vector instruction queue reads
system.cpu0.iq.vec_inst_queue_writes                0                       # Number of vector instruction queue writes
system.cpu0.iq.vec_inst_queue_wakeup_accesses            0                       # Number of vector instruction queue wakeup accesses
system.cpu0.iq.int_alu_accesses              33480022                       # Number of integer alu accesses
system.cpu0.iq.fp_alu_accesses               37400809                       # Number of floating point alu accesses
system.cpu0.iq.vec_alu_accesses                     0                       # Number of vector alu accesses
system.cpu0.iew.lsq.thread0.forwLoads          418933                       # Number of loads that had data forwarded from stores
system.cpu0.iew.lsq.thread0.invAddrLoads            0                       # Number of loads ignored due to an invalid address
system.cpu0.iew.lsq.thread0.squashedLoads      1407288                       # Number of loads squashed
system.cpu0.iew.lsq.thread0.ignoredResponses            3                       # Number of memory responses ignored because the instruction is squashed
system.cpu0.iew.lsq.thread0.memOrderViolation          102                       # Number of memory ordering violations
system.cpu0.iew.lsq.thread0.squashedStores         3488                       # Number of stores squashed
system.cpu0.iew.lsq.thread0.invAddrSwpfs            0                       # Number of software prefetches ignored due to an invalid address
system.cpu0.iew.lsq.thread0.blockedLoads            0                       # Number of blocked loads due to partial load-store forwarding
system.cpu0.iew.lsq.thread0.rescheduledLoads            0                       # Number of loads that were rescheduled
system.cpu0.iew.lsq.thread0.cacheBlocked            0                       # Number of times an access to memory failed due to the cache being blocked
system.cpu0.iew.iewIdleCycles                       0                       # Number of cycles IEW is idle
system.cpu0.iew.iewSquashCycles                108804                       # Number of cycles IEW is squashing
system.cpu0.iew.iewBlockCycles                3289010                       # Number of cycles IEW is blocking
system.cpu0.iew.iewUnblockCycles               106112                       # Number of cycles IEW is unblocking
system.cpu0.iew.iewDispatchedInsts           76445267                       # Number of instructions dispatched to IQ
system.cpu0.iew.iewDispSquashedInsts                0                       # Number of squashed instructions skipped by dispatch
system.cpu0.iew.iewDispLoadInsts              9519246                       # Number of dispatched load instructions
system.cpu0.iew.iewDispStoreInsts             2099006                       # Number of dispatched store instructions
system.cpu0.iew.iewDispNonSpecInsts                 0                       # Number of dispatched non-speculative instructions
system.cpu0.iew.iewIQFullEvents                 92637                       # Number of times the IQ has become full, causing a stall
system.cpu0.iew.iewLSQFullEvents                    0                       # Number of times the LSQ has become full, causing a stall
system.cpu0.iew.memOrderViolationEvents           102                       # Number of memory order violations
system.cpu0.iew.predictedTakenIncorrect         56058                       # Number of branches that were predicted taken incorrectly
system.cpu0.iew.predictedNotTakenIncorrect        52646                       # Number of branches that were predicted not taken incorrectly
system.cpu0.iew.branchMispredicts              108704                       # Number of branch mispredicts detected at execute
system.cpu0.iew.iewExecutedInsts             70584790                       # Number of executed instructions
system.cpu0.iew.iewExecLoadInsts              8899312                       # Number of load instructions executed
system.cpu0.iew.iewExecSquashedInsts           195886                       # Number of squashed instructions skipped in execute
system.cpu0.iew.exec_swp                            0                       # number of swp insts executed
system.cpu0.iew.exec_nop                            0                       # number of nop insts executed
system.cpu0.iew.exec_refs                    10996067                       # number of memory reference insts executed
system.cpu0.iew.exec_branches                 4711965                       # Number of branches executed
system.cpu0.iew.exec_stores                   2096755                       # Number of stores executed
system.cpu0.iew.exec_rate                    2.311626                       # Inst execution rate
system.cpu0.iew.wb_sent                      70580297                       # cumulative count of insts sent to commit
system.cpu0.iew.wb_count                     70576153                       # cumulative count of insts written-back
system.cpu0.iew.wb_producers                 52527738                       # num instructions producing a value
system.cpu0.iew.wb_consumers                 92452327                       # num instructions consuming a value
system.cpu0.iew.wb_rate                      2.311344                       # insts written-back per cycle
system.cpu0.iew.wb_fanout                    0.568160                       # average fanout of values written-back
system.cpu0.commit.commitSquashedInsts       10583834                       # The number of squashed insts skipped by commit
system.cpu0.commit.branchMispredicts           108702                       # The number of times a branch was mispredicted
system.cpu0.commit.committed_per_cycle::samples     29181019                       # Number of insts commited each cycle
system.cpu0.commit.committed_per_cycle::mean     2.256999                       # Number of insts commited each cycle
system.cpu0.commit.committed_per_cycle::stdev     2.861823                       # Number of insts commited each cycle
system.cpu0.commit.committed_per_cycle::underflows            0      0.00%      0.00% # Number of insts commited each cycle
system.cpu0.commit.committed_per_cycle::0     10926611     37.44%     37.44% # Number of insts commited each cycle
system.cpu0.commit.committed_per_cycle::1      7526245     25.79%     63.24% # Number of insts commited each cycle
system.cpu0.commit.committed_per_cycle::2      1055140      3.62%     66.85% # Number of insts commited each cycle
system.cpu0.commit.committed_per_cycle::3      2918230     10.00%     76.85% # Number of insts commited each cycle
system.cpu0.commit.committed_per_cycle::4      1141915      3.91%     80.77% # Number of insts commited each cycle
system.cpu0.commit.committed_per_cycle::5       216842      0.74%     81.51% # Number of insts commited each cycle
system.cpu0.commit.committed_per_cycle::6       420728      1.44%     82.95% # Number of insts commited each cycle
system.cpu0.commit.committed_per_cycle::7       508379      1.74%     84.69% # Number of insts commited each cycle
system.cpu0.commit.committed_per_cycle::8      4466929     15.31%    100.00% # Number of insts commited each cycle
system.cpu0.commit.committed_per_cycle::overflows            0      0.00%    100.00% # Number of insts commited each cycle
system.cpu0.commit.committed_per_cycle::min_value            0                       # Number of insts commited each cycle
system.cpu0.commit.committed_per_cycle::max_value            8                       # Number of insts commited each cycle
system.cpu0.commit.committed_per_cycle::total     29181019                       # Number of insts commited each cycle
system.cpu0.commit.committedInsts            37090724                       # Number of instructions committed
system.cpu0.commit.committedOps              65861538                       # Number of ops (including micro ops) committed
system.cpu0.commit.swp_count                        0                       # Number of s/w prefetches committed
system.cpu0.commit.refs                      10207476                       # Number of memory references committed
system.cpu0.commit.loads                      8111958                       # Number of loads committed
system.cpu0.commit.membars                          0                       # Number of memory barriers committed
system.cpu0.commit.branches                   4605774                       # Number of branches committed
system.cpu0.commit.vec_insts                        0                       # Number of committed Vector instructions.
system.cpu0.commit.fp_insts                  34050755                       # Number of committed floating point instructions.
system.cpu0.commit.int_insts                 40893712                       # Number of committed integer instructions.
system.cpu0.commit.function_calls              626532                       # Number of function calls committed.
system.cpu0.commit.op_class_0::No_OpClass         5983      0.01%      0.01% # Class of committed instruction
system.cpu0.commit.op_class_0::IntAlu        34236950     51.98%     51.99% # Class of committed instruction
system.cpu0.commit.op_class_0::IntMult              0      0.00%     51.99% # Class of committed instruction
system.cpu0.commit.op_class_0::IntDiv               0      0.00%     51.99% # Class of committed instruction
system.cpu0.commit.op_class_0::FloatAdd      21411129     32.51%     84.50% # Class of committed instruction
system.cpu0.commit.op_class_0::FloatCmp             0      0.00%     84.50% # Class of committed instruction
system.cpu0.commit.op_class_0::FloatCvt             0      0.00%     84.50% # Class of committed instruction
system.cpu0.commit.op_class_0::FloatMult            0      0.00%     84.50% # Class of committed instruction
system.cpu0.commit.op_class_0::FloatMultAcc            0      0.00%     84.50% # Class of committed instruction
system.cpu0.commit.op_class_0::FloatDiv             0      0.00%     84.50% # Class of committed instruction
system.cpu0.commit.op_class_0::FloatMisc            0      0.00%     84.50% # Class of committed instruction
system.cpu0.commit.op_class_0::FloatSqrt            0      0.00%     84.50% # Class of committed instruction
system.cpu0.commit.op_class_0::SimdAdd              0      0.00%     84.50% # Class of committed instruction
system.cpu0.commit.op_class_0::SimdAddAcc            0      0.00%     84.50% # Class of committed instruction
system.cpu0.commit.op_class_0::SimdAlu              0      0.00%     84.50% # Class of committed instruction
system.cpu0.commit.op_class_0::SimdCmp              0      0.00%     84.50% # Class of committed instruction
system.cpu0.commit.op_class_0::SimdCvt              0      0.00%     84.50% # Class of committed instruction
system.cpu0.commit.op_class_0::SimdMisc             0      0.00%     84.50% # Class of committed instruction
system.cpu0.commit.op_class_0::SimdMult             0      0.00%     84.50% # Class of committed instruction
system.cpu0.commit.op_class_0::SimdMultAcc            0      0.00%     84.50% # Class of committed instruction
system.cpu0.commit.op_class_0::SimdShift            0      0.00%     84.50% # Class of committed instruction
system.cpu0.commit.op_class_0::SimdShiftAcc            0      0.00%     84.50% # Class of committed instruction
system.cpu0.commit.op_class_0::SimdSqrt             0      0.00%     84.50% # Class of committed instruction
system.cpu0.commit.op_class_0::SimdFloatAdd            0      0.00%     84.50% # Class of committed instruction
system.cpu0.commit.op_class_0::SimdFloatAlu            0      0.00%     84.50% # Class of committed instruction
system.cpu0.commit.op_class_0::SimdFloatCmp            0      0.00%     84.50% # Class of committed instruction
system.cpu0.commit.op_class_0::SimdFloatCvt            0      0.00%     84.50% # Class of committed instruction
system.cpu0.commit.op_class_0::SimdFloatDiv            0      0.00%     84.50% # Class of committed instruction
system.cpu0.commit.op_class_0::SimdFloatMisc            0      0.00%     84.50% # Class of committed instruction
system.cpu0.commit.op_class_0::SimdFloatMult            0      0.00%     84.50% # Class of committed instruction
system.cpu0.commit.op_class_0::SimdFloatMultAcc            0      0.00%     84.50% # Class of committed instruction
system.cpu0.commit.op_class_0::SimdFloatSqrt            0      0.00%     84.50% # Class of committed instruction
system.cpu0.commit.op_class_0::MemRead        1946865      2.96%     87.46% # Class of committed instruction
system.cpu0.commit.op_class_0::MemWrite       1468983      2.23%     89.69% # Class of committed instruction
system.cpu0.commit.op_class_0::FloatMemRead      6165093      9.36%     99.05% # Class of committed instruction
system.cpu0.commit.op_class_0::FloatMemWrite       626535      0.95%    100.00% # Class of committed instruction
system.cpu0.commit.op_class_0::IprAccess            0      0.00%    100.00% # Class of committed instruction
system.cpu0.commit.op_class_0::InstPrefetch            0      0.00%    100.00% # Class of committed instruction
system.cpu0.commit.op_class_0::total         65861538                       # Class of committed instruction
system.cpu0.commit.bw_lim_events              4466929                       # number cycles where commit BW limit reached
system.cpu0.rob.rob_reads                   101159462                       # The number of ROB reads
system.cpu0.rob.rob_writes                  154244331                       # The number of ROB writes
system.cpu0.committedInsts                   37090724                       # Number of Instructions Simulated
system.cpu0.committedOps                     65861538                       # Number of Ops (including micro ops) Simulated
system.cpu0.cpi                              0.823243                       # CPI: Cycles Per Instruction
system.cpu0.cpi_total                        0.823243                       # CPI: Total CPI of All Threads
system.cpu0.ipc                              1.214708                       # IPC: Instructions Per Cycle
system.cpu0.ipc_total                        1.214708                       # IPC: Total IPC of All Threads
system.cpu0.int_regfile_reads                56167164                       # number of integer regfile reads
system.cpu0.int_regfile_writes               28589888                       # number of integer regfile writes
system.cpu0.fp_regfile_reads                 64746563                       # number of floating regfile reads
system.cpu0.fp_regfile_writes                33294650                       # number of floating regfile writes
system.cpu0.cc_regfile_reads                 20587826                       # number of cc regfile reads
system.cpu0.cc_regfile_writes                13413258                       # number of cc regfile writes
system.cpu0.misc_regfile_reads               24146168                       # number of misc regfile reads
system.cpu0.dcache.tags.pwrStateResidencyTicks::UNDEFINED  15267344125                       # Cumulative time (in ticks) in various power states
system.cpu0.dcache.tags.replacements            14250                       # number of replacements
system.cpu0.dcache.tags.tagsinuse                1024                       # Cycle average of tags in use
system.cpu0.dcache.tags.total_refs            1084939                       # Total number of references to valid blocks.
system.cpu0.dcache.tags.sampled_refs            14250                       # Sample count of references to valid blocks.
system.cpu0.dcache.tags.avg_refs            76.136070                       # Average number of references to valid blocks.
system.cpu0.dcache.tags.warmup_cycle                0                       # Cycle when the warmup percentage was hit.
system.cpu0.dcache.tags.occ_blocks::cpu0.data         1024                       # Average occupied blocks per requestor
system.cpu0.dcache.tags.occ_percent::cpu0.data            1                       # Average percentage of cache occupancy
system.cpu0.dcache.tags.occ_percent::total            1                       # Average percentage of cache occupancy
system.cpu0.dcache.tags.occ_task_id_blocks::1024         1024                       # Occupied blocks per task id
system.cpu0.dcache.tags.age_task_id_blocks_1024::0           10                       # Occupied blocks per task id
system.cpu0.dcache.tags.age_task_id_blocks_1024::1           87                       # Occupied blocks per task id
system.cpu0.dcache.tags.age_task_id_blocks_1024::2          698                       # Occupied blocks per task id
system.cpu0.dcache.tags.age_task_id_blocks_1024::3           10                       # Occupied blocks per task id
system.cpu0.dcache.tags.age_task_id_blocks_1024::4          219                       # Occupied blocks per task id
system.cpu0.dcache.tags.occ_task_id_percent::1024            1                       # Percentage of cache occupancy per task id
system.cpu0.dcache.tags.tag_accesses         42422858                       # Number of tag accesses
system.cpu0.dcache.tags.data_accesses        42422858                       # Number of data accesses
system.cpu0.dcache.pwrStateResidencyTicks::UNDEFINED  15267344125                       # Cumulative time (in ticks) in various power states
system.cpu0.dcache.ReadReq_hits::cpu0.data      8492314                       # number of ReadReq hits
system.cpu0.dcache.ReadReq_hits::total        8492314                       # number of ReadReq hits
system.cpu0.dcache.WriteReq_hits::cpu0.data      2095518                       # number of WriteReq hits
system.cpu0.dcache.WriteReq_hits::total       2095518                       # number of WriteReq hits
system.cpu0.dcache.demand_hits::cpu0.data     10587832                       # number of demand (read+write) hits
system.cpu0.dcache.demand_hits::total        10587832                       # number of demand (read+write) hits
system.cpu0.dcache.overall_hits::cpu0.data     10587832                       # number of overall hits
system.cpu0.dcache.overall_hits::total       10587832                       # number of overall hits
system.cpu0.dcache.ReadReq_misses::cpu0.data        14320                       # number of ReadReq misses
system.cpu0.dcache.ReadReq_misses::total        14320                       # number of ReadReq misses
system.cpu0.dcache.demand_misses::cpu0.data        14320                       # number of demand (read+write) misses
system.cpu0.dcache.demand_misses::total         14320                       # number of demand (read+write) misses
system.cpu0.dcache.overall_misses::cpu0.data        14320                       # number of overall misses
system.cpu0.dcache.overall_misses::total        14320                       # number of overall misses
system.cpu0.dcache.ReadReq_miss_latency::cpu0.data   1375381000                       # number of ReadReq miss cycles
system.cpu0.dcache.ReadReq_miss_latency::total   1375381000                       # number of ReadReq miss cycles
system.cpu0.dcache.demand_miss_latency::cpu0.data   1375381000                       # number of demand (read+write) miss cycles
system.cpu0.dcache.demand_miss_latency::total   1375381000                       # number of demand (read+write) miss cycles
system.cpu0.dcache.overall_miss_latency::cpu0.data   1375381000                       # number of overall miss cycles
system.cpu0.dcache.overall_miss_latency::total   1375381000                       # number of overall miss cycles
system.cpu0.dcache.ReadReq_accesses::cpu0.data      8506634                       # number of ReadReq accesses(hits+misses)
system.cpu0.dcache.ReadReq_accesses::total      8506634                       # number of ReadReq accesses(hits+misses)
system.cpu0.dcache.WriteReq_accesses::cpu0.data      2095518                       # number of WriteReq accesses(hits+misses)
system.cpu0.dcache.WriteReq_accesses::total      2095518                       # number of WriteReq accesses(hits+misses)
system.cpu0.dcache.demand_accesses::cpu0.data     10602152                       # number of demand (read+write) accesses
system.cpu0.dcache.demand_accesses::total     10602152                       # number of demand (read+write) accesses
system.cpu0.dcache.overall_accesses::cpu0.data     10602152                       # number of overall (read+write) accesses
system.cpu0.dcache.overall_accesses::total     10602152                       # number of overall (read+write) accesses
system.cpu0.dcache.ReadReq_miss_rate::cpu0.data     0.001683                       # miss rate for ReadReq accesses
system.cpu0.dcache.ReadReq_miss_rate::total     0.001683                       # miss rate for ReadReq accesses
system.cpu0.dcache.demand_miss_rate::cpu0.data     0.001351                       # miss rate for demand accesses
system.cpu0.dcache.demand_miss_rate::total     0.001351                       # miss rate for demand accesses
system.cpu0.dcache.overall_miss_rate::cpu0.data     0.001351                       # miss rate for overall accesses
system.cpu0.dcache.overall_miss_rate::total     0.001351                       # miss rate for overall accesses
system.cpu0.dcache.ReadReq_avg_miss_latency::cpu0.data 96046.159218                       # average ReadReq miss latency
system.cpu0.dcache.ReadReq_avg_miss_latency::total 96046.159218                       # average ReadReq miss latency
system.cpu0.dcache.demand_avg_miss_latency::cpu0.data 96046.159218                       # average overall miss latency
system.cpu0.dcache.demand_avg_miss_latency::total 96046.159218                       # average overall miss latency
system.cpu0.dcache.overall_avg_miss_latency::cpu0.data 96046.159218                       # average overall miss latency
system.cpu0.dcache.overall_avg_miss_latency::total 96046.159218                       # average overall miss latency
system.cpu0.dcache.blocked_cycles::no_mshrs            0                       # number of cycles access was blocked
system.cpu0.dcache.blocked_cycles::no_targets            0                       # number of cycles access was blocked
system.cpu0.dcache.blocked::no_mshrs                0                       # number of cycles access was blocked
system.cpu0.dcache.blocked::no_targets              0                       # number of cycles access was blocked
system.cpu0.dcache.avg_blocked_cycles::no_mshrs          nan                       # average number of cycles each access was blocked
system.cpu0.dcache.avg_blocked_cycles::no_targets          nan                       # average number of cycles each access was blocked
system.cpu0.dcache.writebacks::writebacks        13402                       # number of writebacks
system.cpu0.dcache.writebacks::total            13402                       # number of writebacks
system.cpu0.dcache.ReadReq_mshr_hits::cpu0.data           70                       # number of ReadReq MSHR hits
system.cpu0.dcache.ReadReq_mshr_hits::total           70                       # number of ReadReq MSHR hits
system.cpu0.dcache.demand_mshr_hits::cpu0.data           70                       # number of demand (read+write) MSHR hits
system.cpu0.dcache.demand_mshr_hits::total           70                       # number of demand (read+write) MSHR hits
system.cpu0.dcache.overall_mshr_hits::cpu0.data           70                       # number of overall MSHR hits
system.cpu0.dcache.overall_mshr_hits::total           70                       # number of overall MSHR hits
system.cpu0.dcache.ReadReq_mshr_misses::cpu0.data        14250                       # number of ReadReq MSHR misses
system.cpu0.dcache.ReadReq_mshr_misses::total        14250                       # number of ReadReq MSHR misses
system.cpu0.dcache.demand_mshr_misses::cpu0.data        14250                       # number of demand (read+write) MSHR misses
system.cpu0.dcache.demand_mshr_misses::total        14250                       # number of demand (read+write) MSHR misses
system.cpu0.dcache.overall_mshr_misses::cpu0.data        14250                       # number of overall MSHR misses
system.cpu0.dcache.overall_mshr_misses::total        14250                       # number of overall MSHR misses
system.cpu0.dcache.ReadReq_mshr_miss_latency::cpu0.data   1356538500                       # number of ReadReq MSHR miss cycles
system.cpu0.dcache.ReadReq_mshr_miss_latency::total   1356538500                       # number of ReadReq MSHR miss cycles
[...]
system.l2.tags.pwrStateResidencyTicks::UNDEFINED  15267344125                       # Cumulative time (in ticks) in various power states
system.l2.tags.replacements                     14228                       # number of replacements
system.l2.tags.tagsinuse                        49152                       # Cycle average of tags in use
system.l2.tags.total_refs                       15028                       # Total number of references to valid blocks.
system.l2.tags.sampled_refs                     14228                       # Sample count of references to valid blocks.
system.l2.tags.avg_refs                      1.056227                       # Average number of references to valid blocks.
system.l2.tags.warmup_cycle                         0                       # Cycle when the warmup percentage was hit.
system.l2.tags.occ_blocks::cpu0.data            49152                       # Average occupied blocks per requestor
system.l2.tags.occ_percent::cpu0.data               1                       # Average percentage of cache occupancy
system.l2.tags.occ_percent::total                   1                       # Average percentage of cache occupancy
system.l2.tags.occ_task_id_blocks::1024         49152                       # Occupied blocks per task id
system.l2.tags.age_task_id_blocks_1024::0           10                       # Occupied blocks per task id
system.l2.tags.age_task_id_blocks_1024::1           84                       # Occupied blocks per task id
system.l2.tags.age_task_id_blocks_1024::2          832                       # Occupied blocks per task id
system.l2.tags.age_task_id_blocks_1024::3         8398                       # Occupied blocks per task id
system.l2.tags.age_task_id_blocks_1024::4        39828                       # Occupied blocks per task id
system.l2.tags.occ_task_id_percent::1024            1                       # Percentage of cache occupancy per task id
system.l2.tags.tag_accesses                    356228                       # Number of tag accesses
system.l2.tags.data_accesses                   356228                       # Number of data accesses
system.l2.pwrStateResidencyTicks::UNDEFINED  15267344125                       # Cumulative time (in ticks) in various power states
system.l2.WritebackDirty_hits::writebacks        13402                       # number of WritebackDirty hits
system.l2.WritebackDirty_hits::total            13402                       # number of WritebackDirty hits
system.l2.ReadSharedReq_hits::cpu0.data            22                       # number of ReadSharedReq hits
system.l2.ReadSharedReq_hits::total                22                       # number of ReadSharedReq hits
system.l2.demand_hits::cpu0.data                   22                       # number of demand (read+write) hits
system.l2.demand_hits::total                       22                       # number of demand (read+write) hits
system.l2.overall_hits::cpu0.data                  22                       # number of overall hits
system.l2.overall_hits::total                      22                       # number of overall hits
system.l2.ReadSharedReq_misses::cpu0.data        14228                       # number of ReadSharedReq misses
system.l2.ReadSharedReq_misses::total           14228                       # number of ReadSharedReq misses
system.l2.demand_misses::cpu0.data              14228                       # number of demand (read+write) misses
system.l2.demand_misses::total                  14228                       # number of demand (read+write) misses
system.l2.overall_misses::cpu0.data             14228                       # number of overall misses
system.l2.overall_misses::total                 14228                       # number of overall misses
system.l2.ReadSharedReq_miss_latency::cpu0.data   1334928000                       # number of ReadSharedReq miss cycles
system.l2.ReadSharedReq_miss_latency::total   1334928000                       # number of ReadSharedReq miss cycles
system.l2.demand_miss_latency::cpu0.data   1334928000                       # number of demand (read+write) miss cycles
system.l2.demand_miss_latency::total       1334928000                       # number of demand (read+write) miss cycles
system.l2.overall_miss_latency::cpu0.data   1334928000                       # number of overall miss cycles
system.l2.overall_miss_latency::total      1334928000                       # number of overall miss cycles
system.l2.WritebackDirty_accesses::writebacks        13402                       # number of WritebackDirty accesses(hits+misses)
system.l2.WritebackDirty_accesses::total        13402                       # number of WritebackDirty accesses(hits+misses)
system.l2.ReadSharedReq_accesses::cpu0.data        14250                       # number of ReadSharedReq accesses(hits+misses)
system.l2.ReadSharedReq_accesses::total         14250                       # number of ReadSharedReq accesses(hits+misses)
system.l2.demand_accesses::cpu0.data            14250                       # number of demand (read+write) accesses
system.l2.demand_accesses::total                14250                       # number of demand (read+write) accesses
system.l2.overall_accesses::cpu0.data           14250                       # number of overall (read+write) accesses
system.l2.overall_accesses::total               14250                       # number of overall (read+write) accesses
system.l2.ReadSharedReq_miss_rate::cpu0.data     0.998456                       # miss rate for ReadSharedReq accesses
system.l2.ReadSharedReq_miss_rate::total     0.998456                       # miss rate for ReadSharedReq accesses
system.l2.demand_miss_rate::cpu0.data        0.998456                       # miss rate for demand accesses
system.l2.demand_miss_rate::total            0.998456                       # miss rate for demand accesses
system.l2.overall_miss_rate::cpu0.data       0.998456                       # miss rate for overall accesses
system.l2.overall_miss_rate::total           0.998456                       # miss rate for overall accesses
system.l2.ReadSharedReq_avg_miss_latency::cpu0.data 93824.008996                       # average ReadSharedReq miss latency
system.l2.ReadSharedReq_avg_miss_latency::total 93824.008996                       # average ReadSharedReq miss latency
system.l2.demand_avg_miss_latency::cpu0.data 93824.008996                       # average overall miss latency
system.l2.demand_avg_miss_latency::total 93824.008996                       # average overall miss latency
system.l2.overall_avg_miss_latency::cpu0.data 93824.008996                       # average overall miss latency
system.l2.overall_avg_miss_latency::total 93824.008996                       # average overall miss latency
system.l2.blocked_cycles::no_mshrs                  0                       # number of cycles access was blocked
system.l2.blocked_cycles::no_targets                0                       # number of cycles access was blocked
system.l2.blocked::no_mshrs                         0                       # number of cycles access was blocked
system.l2.blocked::no_targets                       0                       # number of cycles access was blocked
system.l2.avg_blocked_cycles::no_mshrs            nan                       # average number of cycles each access was blocked
system.l2.avg_blocked_cycles::no_targets          nan                       # average number of cycles each access was blocked
system.l2.writebacks::writebacks                13466                       # number of writebacks
system.l2.writebacks::total                     13466                       # number of writebacks
system.l2.ReadSharedReq_mshr_misses::cpu0.data        14228                       # number of ReadSharedReq MSHR misses
system.l2.ReadSharedReq_mshr_misses::total        14228                       # number of ReadSharedReq MSHR misses
system.l2.demand_mshr_misses::cpu0.data         14228                       # number of demand (read+write) MSHR misses
system.l2.demand_mshr_misses::total             14228                       # number of demand (read+write) MSHR misses
system.l2.overall_mshr_misses::cpu0.data        14228                       # number of overall MSHR misses
system.l2.overall_mshr_misses::total            14228                       # number of overall MSHR misses
system.l2.ReadSharedReq_mshr_miss_latency::cpu0.data   1192648000                       # number of ReadSharedReq MSHR miss cycles
system.l2.ReadSharedReq_mshr_miss_latency::total   1192648000                       # number of ReadSharedReq MSHR miss cycles
system.l2.demand_mshr_miss_latency::cpu0.data   1192648000                       # number of demand (read+write) MSHR miss cycles
system.l2.demand_mshr_miss_latency::total   1192648000                       # number of demand (read+write) MSHR miss cycles
system.l2.overall_mshr_miss_latency::cpu0.data   1192648000                       # number of overall MSHR miss cycles
system.l2.overall_mshr_miss_latency::total   1192648000                       # number of overall MSHR miss cycles
system.l2.ReadSharedReq_mshr_miss_rate::cpu0.data     0.998456                       # mshr miss rate for ReadSharedReq accesses
system.l2.ReadSharedReq_mshr_miss_rate::total     0.998456                       # mshr miss rate for ReadSharedReq accesses
system.l2.demand_mshr_miss_rate::cpu0.data     0.998456                       # mshr miss rate for demand accesses
system.l2.demand_mshr_miss_rate::total       0.998456                       # mshr miss rate for demand accesses
system.l2.overall_mshr_miss_rate::cpu0.data     0.998456                       # mshr miss rate for overall accesses
system.l2.overall_mshr_miss_rate::total      0.998456                       # mshr miss rate for overall accesses
system.l2.ReadSharedReq_avg_mshr_miss_latency::cpu0.data 83824.008996                       # average ReadSharedReq mshr miss latency
system.l2.ReadSharedReq_avg_mshr_miss_latency::total 83824.008996                       # average ReadSharedReq mshr miss latency
system.l2.demand_avg_mshr_miss_latency::cpu0.data 83824.008996                       # average overall mshr miss latency
system.l2.demand_avg_mshr_miss_latency::total 83824.008996                       # average overall mshr miss latency
system.l2.overall_avg_mshr_miss_latency::cpu0.data 83824.008996                       # average overall mshr miss latency
system.l2.overall_avg_mshr_miss_latency::total 83824.008996                       # average overall mshr miss latency
system.membus.snoop_filter.tot_requests         28456                       # Total number of requests made to the snoop filter.
system.membus.snoop_filter.hit_single_requests        14228                       # Number of requests hitting in the snoop filter with a single holder of the requested data.
system.membus.snoop_filter.hit_multi_requests            0                       # Number of requests hitting in the snoop filter with multiple (>1) holders of the requested data.
system.membus.snoop_filter.tot_snoops               0                       # Total number of snoops made to the snoop filter.
system.membus.snoop_filter.hit_single_snoops            0                       # Number of snoops hitting in the snoop filter with a single holder of the requested data.
system.membus.snoop_filter.hit_multi_snoops            0                       # Number of snoops hitting in the snoop filter with multiple (>1) holders of the requested data.
system.membus.pwrStateResidencyTicks::UNDEFINED  15267344125                       # Cumulative time (in ticks) in various power states
system.membus.trans_dist::ReadResp              14228                       # Transaction distribution
system.membus.trans_dist::WritebackDirty        13466                       # Transaction distribution
system.membus.trans_dist::CleanEvict              762                       # Transaction distribution
system.membus.trans_dist::ReadSharedReq         14228                       # Transaction distribution
system.membus.pkt_count_system.l2.mem_side::system.mem_ctrls.port        42684                       # Packet count per connected master and slave (bytes)
system.membus.pkt_count_system.l2.mem_side::total        42684                       # Packet count per connected master and slave (bytes)
system.membus.pkt_count::total                  42684                       # Packet count per connected master and slave (bytes)
system.membus.pkt_size_system.l2.mem_side::system.mem_ctrls.port      1772416                       # Cumulative packet size per connected master and slave (bytes)
system.membus.pkt_size_system.l2.mem_side::total      1772416                       # Cumulative packet size per connected master and slave (bytes)
system.membus.pkt_size::total                 1772416                       # Cumulative packet size per connected master and slave (bytes)
system.membus.snoops                                0                       # Total snoops (count)
system.membus.snoopTraffic                          0                       # Total snoop traffic (bytes)
system.membus.snoop_fanout::samples             14228                       # Request fanout histogram
system.membus.snoop_fanout::mean                    0                       # Request fanout histogram
system.membus.snoop_fanout::stdev                   0                       # Request fanout histogram
system.membus.snoop_fanout::underflows              0      0.00%      0.00% # Request fanout histogram
system.membus.snoop_fanout::0                   14228    100.00%    100.00% # Request fanout histogram
system.membus.snoop_fanout::1                       0      0.00%    100.00% # Request fanout histogram
system.membus.snoop_fanout::overflows               0      0.00%    100.00% # Request fanout histogram
system.membus.snoop_fanout::min_value               0                       # Request fanout histogram
system.membus.snoop_fanout::max_value               0                       # Request fanout histogram
system.membus.snoop_fanout::total               14228                       # Request fanout histogram
system.membus.reqLayer8.occupancy            85926000                       # Layer occupancy (ticks)
system.membus.reqLayer8.utilization               0.6                       # Layer utilization (%)
system.membus.respLayer1.occupancy           75776000                       # Layer occupancy (ticks)
system.membus.respLayer1.utilization              0.5                       # Layer utilization (%)
system.tol2bus.snoop_filter.tot_requests        28500                       # Total number of requests made to the snoop filter.
system.tol2bus.snoop_filter.hit_single_requests        14250                       # Number of requests hitting in the snoop filter with a single holder of the requested data.
system.tol2bus.snoop_filter.hit_multi_requests            0                       # Number of requests hitting in the snoop filter with multiple (>1) holders of the requested data.
system.tol2bus.snoop_filter.tot_snoops              0                       # Total number of snoops made to the snoop filter.
system.tol2bus.snoop_filter.hit_single_snoops            0                       # Number of snoops hitting in the snoop filter with a single holder of the requested data.
system.tol2bus.snoop_filter.hit_multi_snoops            0                       # Number of snoops hitting in the snoop filter with multiple (>1) holders of the requested data.
system.tol2bus.pwrStateResidencyTicks::UNDEFINED  15267344125                       # Cumulative time (in ticks) in various power states
system.tol2bus.trans_dist::ReadResp             14250                       # Transaction distribution
system.tol2bus.trans_dist::WritebackDirty        26868                       # Transaction distribution
system.tol2bus.trans_dist::CleanEvict            1610                       # Transaction distribution
system.tol2bus.trans_dist::ReadSharedReq        14250                       # Transaction distribution
system.tol2bus.pkt_count_system.cpu0.dcache.mem_side::system.l2.cpu_side        42750                       # Packet count per connected master and slave (bytes)
system.tol2bus.pkt_count::total                 42750                       # Packet count per connected master and slave (bytes)
system.tol2bus.pkt_size_system.cpu0.dcache.mem_side::system.l2.cpu_side      1769728                       # Cumulative packet size per connected master and slave (bytes)
system.tol2bus.pkt_size::total                1769728                       # Cumulative packet size per connected master and slave (bytes)
system.tol2bus.snoops                           14228                       # Total snoops (count)
system.tol2bus.snoopTraffic                    861824                       # Total snoop traffic (bytes)
system.tol2bus.snoop_fanout::samples            28478                       # Request fanout histogram
system.tol2bus.snoop_fanout::mean                   0                       # Request fanout histogram
system.tol2bus.snoop_fanout::stdev                  0                       # Request fanout histogram
system.tol2bus.snoop_fanout::underflows             0      0.00%      0.00% # Request fanout histogram
system.tol2bus.snoop_fanout::0                  28478    100.00%    100.00% # Request fanout histogram
system.tol2bus.snoop_fanout::1                      0      0.00%    100.00% # Request fanout histogram
system.tol2bus.snoop_fanout::2                      0      0.00%    100.00% # Request fanout histogram
system.tol2bus.snoop_fanout::3                      0      0.00%    100.00% # Request fanout histogram
system.tol2bus.snoop_fanout::4                      0      0.00%    100.00% # Request fanout histogram
system.tol2bus.snoop_fanout::5                      0      0.00%    100.00% # Request fanout histogram
system.tol2bus.snoop_fanout::6                      0      0.00%    100.00% # Request fanout histogram
system.tol2bus.snoop_fanout::7                      0      0.00%    100.00% # Request fanout histogram
system.tol2bus.snoop_fanout::8                      0      0.00%    100.00% # Request fanout histogram
system.tol2bus.snoop_fanout::9                      0      0.00%    100.00% # Request fanout histogram
system.tol2bus.snoop_fanout::10                     0      0.00%    100.00% # Request fanout histogram
system.tol2bus.snoop_fanout::11                     0      0.00%    100.00% # Request fanout histogram
system.tol2bus.snoop_fanout::12                     0      0.00%    100.00% # Request fanout histogram
system.tol2bus.snoop_fanout::13                     0      0.00%    100.00% # Request fanout histogram
system.tol2bus.snoop_fanout::14                     0      0.00%    100.00% # Request fanout histogram
system.tol2bus.snoop_fanout::15                     0      0.00%    100.00% # Request fanout histogram
system.tol2bus.snoop_fanout::16                     0      0.00%    100.00% # Request fanout histogram
system.tol2bus.snoop_fanout::overflows              0      0.00%    100.00% # Request fanout histogram
system.tol2bus.snoop_fanout::min_value              0                       # Request fanout histogram
system.tol2bus.snoop_fanout::max_value              0                       # Request fanout histogram
system.tol2bus.snoop_fanout::total              28478                       # Request fanout histogram
system.tol2bus.reqLayer0.occupancy           27652000                       # Layer occupancy (ticks)
system.tol2bus.reqLayer0.utilization              0.2                       # Layer utilization (%)
system.tol2bus.respLayer1.occupancy          21375000                       # Layer occupancy (ticks)
system.tol2bus.respLayer1.utilization             0.1                       # Layer utilization (%)

---------- End Simulation Statistics   ----------
