
---------- Begin Simulation Statistics ----------
sim_seconds                                  0.015267                       # Number of seconds simulated
sim_ticks                                 15267344125                       # Number of ticks simulated
final_tick                               8076425042125                       # Number of ticks from beginning of simulation (restored from checkpoints and never reset)
sim_freq                                 1000000000000                       # Frequency of simulated ticks
host_inst_rate                               24971666                       # Simulator instruction rate (inst/s)
host_op_rate                                 46705573                       # Simulator op (including micro ops) rate (op/s)
host_tick_rate                               60762029                       # Simulator tick rate (ticks/s)
host_mem_usage                                2332668                       # Number of bytes of host memory used
host_seconds                                   251.27                       # Real time elapsed on the host
sim_insts                                  6274493634                       # Number of instructions simulated
sim_ops                                   11735453990                       # Number of ops (including micro ops) simulated
system.voltage_domain.voltage                       1                       # Voltage in Volts
system.clk_domain.clock                          1000                       # Clock period in ticks
system.mem_ctrls.pwrStateResidencyTicks::UNDEFINED  15267344125                       # Cumulative time (in ticks) in various power states
system.mem_ctrls.bytes_read::cpu0.inst            256                       # Number of bytes read from this memory
system.mem_ctrls.bytes_read::cpu0.data            704                       # Number of bytes read from this memory
system.mem_ctrls.bytes_read::total                960                       # Number of bytes read from this memory
system.mem_ctrls.bytes_inst_read::cpu0.inst          256                       # Number of instructions bytes read from this memory
system.mem_ctrls.bytes_inst_read::total           256                       # Number of instructions bytes read from this memory
system.mem_ctrls.num_reads::cpu0.inst               4                       # Number of read requests responded to by this memory
system.mem_ctrls.num_reads::cpu0.data              11                       # Number of read requests responded to by this memory
system.mem_ctrls.num_reads::total                  15                       # Number of read requests responded to by this memory
system.mem_ctrls.bw_read::cpu0.inst             16768                       # Total read bandwidth from this memory (bytes/s)
system.mem_ctrls.bw_read::cpu0.data             46111                       # Total read bandwidth from this memory (bytes/s)
system.mem_ctrls.bw_read::total                 62879                       # Total read bandwidth from this memory (bytes/s)
system.mem_ctrls.bw_inst_read::cpu0.inst        16768                       # Instruction read bandwidth from this memory (bytes/s)
system.mem_ctrls.bw_inst_read::total            16768                       # Instruction read bandwidth from this memory (bytes/s)
system.mem_ctrls.bw_total::cpu0.inst            16768                       # Total bandwidth to/from this memory (bytes/s)
system.mem_ctrls.bw_total::cpu0.data            46111                       # Total bandwidth to/from this memory (bytes/s)
system.mem_ctrls.bw_total::total                62879                       # Total bandwidth to/from this memory (bytes/s)
system.mem_ctrls.readReqs                          15                       # Number of read requests accepted
system.mem_ctrls.writeReqs                          0                       # Number of write requests accepted
system.mem_ctrls.readBursts                        15                       # Number of DRAM read bursts, including those serviced by the write queue
system.mem_ctrls.writeBursts                        0                       # Number of DRAM write bursts, including those merged in the write queue
system.mem_ctrls.bytesReadDRAM                    960                       # Total number of bytes read from DRAM
system.mem_ctrls.bytesReadWrQ                       0                       # Total number of bytes read from write queue
system.mem_ctrls.bytesWritten                       0                       # Total number of bytes written to DRAM
system.mem_ctrls.bytesReadSys                     960                       # Total read bytes from the system interface side
system.mem_ctrls.bytesWrittenSys                    0                       # Total written bytes from the system interface side
system.mem_ctrls.servicedByWrQ                      0                       # Number of DRAM read bursts serviced by the write queue
system.mem_ctrls.mergedWrBursts                     0                       # Number of DRAM write bursts merged with an existing one
system.mem_ctrls.neitherReadNorWriteReqs            0                       # Number of requests that are neither read nor write
system.mem_ctrls.perBankRdBursts::0                 0                       # Per bank write bursts
system.mem_ctrls.perBankRdBursts::1                 1                       # Per bank write bursts
system.mem_ctrls.perBankRdBursts::2                 2                       # Per bank write bursts
system.mem_ctrls.perBankRdBursts::3                 0                       # Per bank write bursts
system.mem_ctrls.perBankRdBursts::4                 0                       # Per bank write bursts
system.mem_ctrls.perBankRdBursts::5                 0                       # Per bank write bursts
system.mem_ctrls.perBankRdBursts::6                 1                       # Per bank write bursts
system.mem_ctrls.perBankRdBursts::7                 1                       # Per bank write bursts
system.mem_ctrls.perBankRdBursts::8                 0                       # Per bank write bursts
system.mem_ctrls.perBankRdBursts::9                 2                       # Per bank write bursts
system.mem_ctrls.perBankRdBursts::10                0                       # Per bank write bursts
system.mem_ctrls.perBankRdBursts::11                0                       # Per bank write bursts
system.mem_ctrls.perBankRdBursts::12                0                       # Per bank write bursts
system.mem_ctrls.perBankRdBursts::13                0                       # Per bank write bursts
system.mem_ctrls.perBankRdBursts::14                0                       # Per bank write bursts
system.mem_ctrls.perBankRdBursts::15                8                       # Per bank write bursts
system.mem_ctrls.perBankWrBursts::0                 0                       # Per bank write bursts
system.mem_ctrls.perBankWrBursts::1                 0                       # Per bank write bursts
system.mem_ctrls.perBankWrBursts::2                 0                       # Per bank write bursts
system.mem_ctrls.perBankWrBursts::3                 0                       # Per bank write bursts
system.mem_ctrls.perBankWrBursts::4                 0                       # Per bank write bursts
system.mem_ctrls.perBankWrBursts::5                 0                       # Per bank write bursts
system.mem_ctrls.perBankWrBursts::6                 0                       # Per bank write bursts
system.mem_ctrls.perBankWrBursts::7                 0                       # Per bank write bursts
system.mem_ctrls.perBankWrBursts::8                 0                       # Per bank write bursts
system.mem_ctrls.perBankWrBursts::9                 0                       # Per bank write bursts
system.mem_ctrls.perBankWrBursts::10                0                       # Per bank write bursts
system.mem_ctrls.perBankWrBursts::11                0                       # Per bank write bursts
system.mem_ctrls.perBankWrBursts::12                0                       # Per bank write bursts
system.mem_ctrls.perBankWrBursts::13                0                       # Per bank write bursts
system.mem_ctrls.perBankWrBursts::14                0                       # Per bank write bursts
system.mem_ctrls.perBankWrBursts::15                0                       # Per bank write bursts
system.mem_ctrls.numRdRetry                         0                       # Number of times read queue was full causing retry
system.mem_ctrls.numWrRetry                         0                       # Number of times write queue was full causing retry
system.mem_ctrls.totGap                   15822949500                       # Total gap between requests
system.mem_ctrls.readPktSize::0                     0                       # Read request sizes (log2)
system.mem_ctrls.readPktSize::1                     0                       # Read request sizes (log2)
system.mem_ctrls.readPktSize::2                     0                       # Read request sizes (log2)
system.mem_ctrls.readPktSize::3                     0                       # Read request sizes (log2)
system.mem_ctrls.readPktSize::4                     0                       # Read request sizes (log2)
system.mem_ctrls.readPktSize::5                     0                       # Read request sizes (log2)
system.mem_ctrls.readPktSize::6                    15                       # Read request sizes (log2)
system.mem_ctrls.writePktSize::0                    0                       # Write request sizes (log2)
system.mem_ctrls.writePktSize::1                    0                       # Write request sizes (log2)
system.mem_ctrls.writePktSize::2                    0                       # Write request sizes (log2)
system.mem_ctrls.writePktSize::3                    0                       # Write request sizes (log2)
system.mem_ctrls.writePktSize::4                    0                       # Write request sizes (log2)
system.mem_ctrls.writePktSize::5                    0                       # Write request sizes (log2)
system.mem_ctrls.writePktSize::6                    0                       # Write request sizes (log2)
system.mem_ctrls.rdQLenPdf::0                      14                       # What read queue length does an incoming req see
system.mem_ctrls.rdQLenPdf::1                       1                       # What read queue length does an incoming req see
system.mem_ctrls.rdQLenPdf::2                       0                       # What read queue length does an incoming req see
system.mem_ctrls.rdQLenPdf::3                       0                       # What read queue length does an incoming req see
system.mem_ctrls.rdQLenPdf::4                       0                       # What read queue length does an incoming req see
system.mem_ctrls.rdQLenPdf::5                       0                       # What read queue length does an incoming req see
system.mem_ctrls.rdQLenPdf::6                       0                       # What read queue length does an incoming req see
system.mem_ctrls.rdQLenPdf::7                       0                       # What read queue length does an incoming req see
system.mem_ctrls.rdQLenPdf::8                       0                       # What read queue length does an incoming req see
system.mem_ctrls.rdQLenPdf::9                       0                       # What read queue length does an incoming req see
system.mem_ctrls.rdQLenPdf::10                      0                       # What read queue length does an incoming req see
system.mem_ctrls.rdQLenPdf::11                      0                       # What read queue length does an incoming req see
system.mem_ctrls.rdQLenPdf::12                      0                       # What read queue length does an incoming req see
system.mem_ctrls.rdQLenPdf::13                      0                       # What read queue length does an incoming req see
system.mem_ctrls.rdQLenPdf::14                      0                       # What read queue length does an incoming req see
system.mem_ctrls.rdQLenPdf::15                      0                       # What read queue length does an incoming req see
system.mem_ctrls.rdQLenPdf::16                      0                       # What read queue length does an incoming req see
system.mem_ctrls.rdQLenPdf::17                      0                       # What read queue length does an incoming req see
system.mem_ctrls.rdQLenPdf::18                      0                       # What read queue length does an incoming req see
system.mem_ctrls.rdQLenPdf::19                      0                       # What read queue length does an incoming req see
system.mem_ctrls.rdQLenPdf::20                      0                       # What read queue length does an incoming req see
system.mem_ctrls.rdQLenPdf::21                      0                       # What read queue length does an incoming req see
system.mem_ctrls.rdQLenPdf::22                      0                       # What read queue length does an incoming req see
system.mem_ctrls.rdQLenPdf::23                      0                       # What read queue length does an incoming req see
system.mem_ctrls.rdQLenPdf::24                      0                       # What read queue length does an incoming req see
system.mem_ctrls.rdQLenPdf::25                      0                       # What read queue length does an incoming req see
system.mem_ctrls.rdQLenPdf::26                      0                       # What read queue length does an incoming req see
system.mem_ctrls.rdQLenPdf::27                      0                       # What read queue length does an incoming req see
system.mem_ctrls.rdQLenPdf::28                      0                       # What read queue length does an incoming req see
system.mem_ctrls.rdQLenPdf::29                      0                       # What read queue length does an incoming req see
system.mem_ctrls.rdQLenPdf::30                      0                       # What read queue length does an incoming req see
system.mem_ctrls.rdQLenPdf::31                      0                       # What read queue length does an incoming req see
system.mem_ctrls.wrQLenPdf::0                       0                       # What write queue length does an incoming req see
system.mem_ctrls.wrQLenPdf::1                       0                       # What write queue length does an incoming req see
system.mem_ctrls.wrQLenPdf::2                       0                       # What write queue length does an incoming req see
system.mem_ctrls.wrQLenPdf::3                       0                       # What write queue length does an incoming req see
system.mem_ctrls.wrQLenPdf::4                       0                       # What write queue length does an incoming req see
system.mem_ctrls.wrQLenPdf::5                       0                       # What write queue length does an incoming req see
system.mem_ctrls.wrQLenPdf::6                       0                       # What write queue length does an incoming req see
system.mem_ctrls.wrQLenPdf::7                       0                       # What write queue length does an incoming req see
system.mem_ctrls.wrQLenPdf::8                       0                       # What write queue length does an incoming req see
system.mem_ctrls.wrQLenPdf::9                       0                       # What write queue length does an incoming req see
system.mem_ctrls.wrQLenPdf::10                      0                       # What write queue length does an incoming req see
system.mem_ctrls.wrQLenPdf::11                      0                       # What write queue length does an incoming req see
system.mem_ctrls.wrQLenPdf::12                      0                       # What write queue length does an incoming req see
system.mem_ctrls.wrQLenPdf::13                      0                       # What write queue length does an incoming req see
system.mem_ctrls.wrQLenPdf::14                      0                       # What write queue length does an incoming req see
system.mem_ctrls.wrQLenPdf::15                      0                       # What write queue length does an incoming req see
system.mem_ctrls.wrQLenPdf::16                      0                       # What write queue length does an incoming req see
system.mem_ctrls.wrQLenPdf::17                      0                       # What write queue length does an incoming req see
system.mem_ctrls.wrQLenPdf::18                      0                       # What write queue length does an incoming req see
system.mem_ctrls.wrQLenPdf::19                      0                       # What write queue length does an incoming req see
system.mem_ctrls.wrQLenPdf::20                      0                       # What write queue length does an incoming req see
system.mem_ctrls.wrQLenPdf::21                      0                       # What write queue length does an incoming req see
system.mem_ctrls.wrQLenPdf::22                      0                       # What write queue length does an incoming req see
system.mem_ctrls.wrQLenPdf::23                      0                       # What write queue length does an incoming req see
system.mem_ctrls.wrQLenPdf::24                      0                       # What write queue length does an incoming req see
system.mem_ctrls.wrQLenPdf::25                      0                       # What write queue length does an incoming req see
system.mem_ctrls.wrQLenPdf::26                      0                       # What write queue length does an incoming req see
system.mem_ctrls.wrQLenPdf::27                      0                       # What write queue length does an incoming req see
system.mem_ctrls.wrQLenPdf::28                      0                       # What write queue length does an incoming req see
system.mem_ctrls.wrQLenPdf::29                      0                       # What write queue length does an incoming req see
system.mem_ctrls.wrQLenPdf::30                      0                       # What write queue length does an incoming req see
system.mem_ctrls.wrQLenPdf::31                      0                       # What write queue length does an incoming req see
system.mem_ctrls.wrQLenPdf::32                      0                       # What write queue length does an incoming req see
system.mem_ctrls.wrQLenPdf::33                      0                       # What write queue length does an incoming req see
system.mem_ctrls.wrQLenPdf::34                      0                       # What write queue length does an incoming req see
system.mem_ctrls.wrQLenPdf::35                      0                       # What write queue length does an incoming req see
system.mem_ctrls.wrQLenPdf::36                      0                       # What write queue length does an incoming req see
system.mem_ctrls.wrQLenPdf::37                      0                       # What write queue length does an incoming req see
system.mem_ctrls.wrQLenPdf::38                      0                       # What write queue length does an incoming req see
system.mem_ctrls.wrQLenPdf::39                      0                       # What write queue length does an incoming req see
system.mem_ctrls.wrQLenPdf::40                      0                       # What write queue length does an incoming req see
system.mem_ctrls.wrQLenPdf::41                      0                       # What write queue length does an incoming req see
system.mem_ctrls.wrQLenPdf::42                      0                       # What write queue length does an incoming req see
system.mem_ctrls.wrQLenPdf::43                      0                       # What write queue length does an incoming req see
system.mem_ctrls.wrQLenPdf::44                      0                       # What write queue length does an incoming req see
system.mem_ctrls.wrQLenPdf::45                      0                       # What write queue length does an incoming req see
system.mem_ctrls.wrQLenPdf::46                      0                       # What write queue length does an incoming req see
system.mem_ctrls.wrQLenPdf::47                      0                       # What write queue length does an incoming req see
system.mem_ctrls.wrQLenPdf::48                      0                       # What write queue length does an incoming req see
system.mem_ctrls.wrQLenPdf::49                      0                       # What write queue length does an incoming req see
system.mem_ctrls.wrQLenPdf::50                      0                       # What write queue length does an incoming req see
system.mem_ctrls.wrQLenPdf::51                      0                       # What write queue length does an incoming req see
system.mem_ctrls.wrQLenPdf::52                      0                       # What write queue length does an incoming req see
system.mem_ctrls.wrQLenPdf::53                      0                       # What write queue length does an incoming req see
system.mem_ctrls.wrQLenPdf::54                      0                       # What write queue length does an incoming req see
system.mem_ctrls.wrQLenPdf::55                      0                       # What write queue length does an incoming req see
system.mem_ctrls.wrQLenPdf::56                      0                       # What write queue length does an incoming req see
system.mem_ctrls.wrQLenPdf::57                      0                       # What write queue length does an incoming req see
system.mem_ctrls.wrQLenPdf::58                      0                       # What write queue length does an incoming req see
system.mem_ctrls.wrQLenPdf::59                      0                       # What write queue length does an incoming req see
system.mem_ctrls.wrQLenPdf::60                      0                       # What write queue length does an incoming req see
system.mem_ctrls.wrQLenPdf::61                      0                       # What write queue length does an incoming req see
system.mem_ctrls.wrQLenPdf::62                      0                       # What write queue length does an incoming req see
system.mem_ctrls.wrQLenPdf::63                      0                       # What write queue length does an incoming req see
system.mem_ctrls.bytesPerActivate::samples           15                       # Bytes accessed per row activation
system.mem_ctrls.bytesPerActivate::mean            64                       # Bytes accessed per row activation
system.mem_ctrls.bytesPerActivate::gmean    64.000000                       # Bytes accessed per row activation
system.mem_ctrls.bytesPerActivate::64-71           15    100.00%    100.00% # Bytes accessed per row activation
system.mem_ctrls.bytesPerActivate::total           15                       # Bytes accessed per row activation
system.mem_ctrls.totQLat                      7637250                       # Total ticks spent queuing
system.mem_ctrls.totMemAccLat                 7918500                       # Total ticks spent from burst creation until serviced by the DRAM
system.mem_ctrls.totBusLat                      75000                       # Total ticks spent in databus transfers
system.mem_ctrls.avgQLat                    509150.00                       # Average queueing delay per DRAM burst
system.mem_ctrls.avgBusLat                    5000.00                       # Average bus latency per DRAM burst
system.mem_ctrls.avgMemAccLat               527900.00                       # Average memory access latency per DRAM burst
system.mem_ctrls.avgRdBW                         0.06                       # Average DRAM read bandwidth in MiByte/s
system.mem_ctrls.avgWrBW                         0.00                       # Average achieved write bandwidth in MiByte/s
system.mem_ctrls.avgRdBWSys                      0.06                       # Average system read bandwidth in MiByte/s
system.mem_ctrls.avgWrBWSys                      0.00                       # Average system write bandwidth in MiByte/s
system.mem_ctrls.peakBW                      12800.00                       # Theoretical peak bandwidth in MiByte/s
system.mem_ctrls.busUtil                         0.00                       # Data bus utilization in percentage
system.mem_ctrls.busUtilRead                     0.00                       # Data bus utilization in percentage for reads
system.mem_ctrls.busUtilWrite                    0.00                       # Data bus utilization in percentage for writes
system.mem_ctrls.avgRdQLen                       1.00                       # Average read queue length when enqueuing
system.mem_ctrls.avgWrQLen                      22.00                       # Average write queue length when enqueuing
system.mem_ctrls.readRowHits                        0                       # Number of row buffer hits during reads
system.mem_ctrls.writeRowHits                       0                       # Number of row buffer hits during writes
system.mem_ctrls.readRowHitRate                  0.00                       # Row buffer hit rate for reads
system.mem_ctrls.writeRowHitRate                  nan                       # Row buffer hit rate for writes
system.mem_ctrls.avgGap                  1054863300.00                       # Average gap between requests
system.mem_ctrls.pageHitRate                     0.00                       # Row buffer hit rate, read and write combined
system.mem_ctrls_0.actEnergy                    35700                       # Energy for activate commands per rank (pJ)
system.mem_ctrls_0.preEnergy                    18975                       # Energy for precharge commands per rank (pJ)
system.mem_ctrls_0.readEnergy                   35700                       # Energy for read commands per rank (pJ)
system.mem_ctrls_0.writeEnergy                      0                       # Energy for write commands per rank (pJ)
system.mem_ctrls_0.refreshEnergy         7375680.000000                       # Energy for refresh commands per rank (pJ)
system.mem_ctrls_0.actBackEnergy              1421010                       # Energy for active background per rank (pJ)
system.mem_ctrls_0.preBackEnergy               508800                       # Energy for precharge background per rank (pJ)
system.mem_ctrls_0.actPowerDownEnergy        13665750                       # Energy for active power-down per rank (pJ)
system.mem_ctrls_0.prePowerDownEnergy        11529600                       # Energy for precharge power-down per rank (pJ)
system.mem_ctrls_0.selfRefreshEnergy       3650907060                       # Energy for self refresh per rank (pJ)
system.mem_ctrls_0.totalEnergy             3685498275                       # Total energy per rank (pJ)
system.mem_ctrls_0.averagePower            241.397472                       # Core power per rank (mW)
system.mem_ctrls_0.totalIdleTime          14962727500                       # Total Idle time Per DRAM Rank
system.mem_ctrls_0.memoryStateTime::IDLE      1080000                       # Time in different power states
system.mem_ctrls_0.memoryStateTime::REF       3144000                       # Time in different power states
system.mem_ctrls_0.memoryStateTime::SREF  15202910125                       # Time in different power states
system.mem_ctrls_0.memoryStateTime::PRE_PDN     30026000                       # Time in different power states
system.mem_ctrls_0.memoryStateTime::ACT        215000                       # Time in different power states
system.mem_ctrls_0.memoryStateTime::ACT_PDN     29969000                       # Time in different power states
system.mem_ctrls_1.actEnergy                    71400                       # Energy for activate commands per rank (pJ)
system.mem_ctrls_1.preEnergy                    37950                       # Energy for precharge commands per rank (pJ)
system.mem_ctrls_1.readEnergy                   71400                       # Energy for read commands per rank (pJ)
system.mem_ctrls_1.writeEnergy                      0                       # Energy for write commands per rank (pJ)
system.mem_ctrls_1.refreshEnergy         17209920.000000                       # Energy for refresh commands per rank (pJ)
system.mem_ctrls_1.actBackEnergy              3320820                       # Energy for active background per rank (pJ)
system.mem_ctrls_1.preBackEnergy              1157760                       # Energy for precharge background per rank (pJ)
system.mem_ctrls_1.actPowerDownEnergy        31256520                       # Energy for active power-down per rank (pJ)
system.mem_ctrls_1.prePowerDownEnergy        28386240                       # Energy for precharge power-down per rank (pJ)
system.mem_ctrls_1.selfRefreshEnergy       3632469060                       # Energy for self refresh per rank (pJ)
system.mem_ctrls_1.totalEnergy             3713981070                       # Total energy per rank (pJ)
system.mem_ctrls_1.averagePower            243.263074                       # Core power per rank (mW)
system.mem_ctrls_1.totalIdleTime          14953039250                       # Total Idle time Per DRAM Rank
system.mem_ctrls_1.memoryStateTime::IDLE      2436000                       # Time in different power states
system.mem_ctrls_1.memoryStateTime::REF       7334000                       # Time in different power states
system.mem_ctrls_1.memoryStateTime::SREF  15114581375                       # Time in different power states
system.mem_ctrls_1.memoryStateTime::PRE_PDN     73925000                       # Time in different power states
system.mem_ctrls_1.memoryStateTime::ACT        522500                       # Time in different power states
system.mem_ctrls_1.memoryStateTime::ACT_PDN     68545250                       # Time in different power states
system.pwrStateResidencyTicks::UNDEFINED  15267344125                       # Cumulative time (in ticks) in various power states
system.cpu0.branchPred.lookups                6071136                       # Number of BP lookups
system.cpu0.branchPred.condPredicted          6071136                       # Number of conditional branches predicted
system.cpu0.branchPred.condIncorrect            31226                       # Number of conditional branches incorrect
system.cpu0.branchPred.BTBLookups             6033159                       # Number of BTB lookups
system.cpu0.branchPred.BTBHits                      0                       # Number of BTB hits
system.cpu0.branchPred.BTBCorrect                   0                       # Number of correct BTB predictions (this stat may not work properly.
system.cpu0.branchPred.BTBHitPct             0.000000                       # BTB Hit Percentage
system.cpu0.branchPred.usedRAS                  17314                       # Number of times the RAS was used to get a target.
system.cpu0.branchPred.RASInCorrect              3616                       # Number of incorrect RAS predictions.
system.cpu0.branchPred.indirectLookups        6033159                       # Number of indirect predictor lookups.
system.cpu0.branchPred.indirectHits           5863625                       # Number of indirect target hits.
system.cpu0.branchPred.indirectMisses          169534                       # Number of indirect misses.
system.cpu0.branchPredindirectMispredicted        21840                       # Number of mispredicted indirect branches.
system.cpu_voltage_domain.voltage                   1                       # Voltage in Volts
system.cpu_clk_domain.clock                       500                       # Clock period in ticks
system.cpu0.dtb.walker.pwrStateResidencyTicks::UNDEFINED  15267344125                       # Cumulative time (in ticks) in various power states
system.cpu0.dtb.rdAccesses                    1893817                       # TLB accesses on read requests
system.cpu0.dtb.wrAccesses                    6008976                       # TLB accesses on write requests
system.cpu0.dtb.rdMisses                         3749                       # TLB misses on read requests
system.cpu0.dtb.wrMisses                        12358                       # TLB misses on write requests
system.cpu0.apic_clk_domain.clock                8000                       # Clock period in ticks
system.cpu0.interrupts.pwrStateResidencyTicks::UNDEFINED  15267344125                       # Cumulative time (in ticks) in various power states
system.cpu0.itb.walker.pwrStateResidencyTicks::UNDEFINED  15267344125                       # Cumulative time (in ticks) in various power states
system.cpu0.itb.rdAccesses                          0                       # TLB accesses on read requests
system.cpu0.itb.wrAccesses                     248216                       # TLB accesses on write requests
system.cpu0.itb.rdMisses                            0                       # TLB misses on read requests
system.cpu0.itb.wrMisses                          451                       # TLB misses on write requests
system.cpu0.workload.numSyscalls                  258                       # Number of system calls
system.cpu0.pwrStateResidencyTicks::ON    15267344125                       # Cumulative time (in ticks) in various power states
system.cpu0.numCycles                        30534688                       # number of cpu cycles simulated
system.cpu0.numWorkItemsStarted                     0                       # number of work items this cpu started
system.cpu0.numWorkItemsCompleted                   0                       # number of work items this cpu completed
system.cpu0.fetch.icacheStallCycles            304381                       # Number of cycles fetch is stalled on an Icache miss
system.cpu0.fetch.Insts                      26927558                       # Number of instructions fetch has processed
system.cpu0.fetch.Branches                    6071136                       # Number of branches that fetch encountered
system.cpu0.fetch.predictedBranches           5880939                       # Number of branches that fetch has predicted taken
system.cpu0.fetch.Cycles                     30192340                       # Number of cycles fetch has run and was not squashing or blocked
system.cpu0.fetch.SquashCycles                  63930                       # Number of cycles fetch has spent squashing
system.cpu0.fetch.TlbCycles                         5                       # Number of cycles fetch has spent waiting for tlb
system.cpu0.fetch.MiscStallCycles                  63                       # Number of cycles fetch has spent waiting on interrupts, or bad addresses, or out of MSHRs
system.cpu0.fetch.PendingTrapStallCycles          343                       # Number of stall cycles due to pending traps
system.cpu0.fetch.CacheLines                   248127                       # Number of cache lines fetched
system.cpu0.fetch.IcacheSquashes                 9200                       # Number of outstanding Icache misses that were squashed
system.cpu0.fetch.ItlbSquashes                      2                       # Number of outstanding ITLB misses that were squashed
system.cpu0.fetch.rateDist::samples          30529097                       # Number of instructions fetched each cycle (Total)
system.cpu0.fetch.rateDist::mean             1.781670                       # Number of instructions fetched each cycle (Total)
system.cpu0.fetch.rateDist::stdev            3.191934                       # Number of instructions fetched each cycle (Total)
system.cpu0.fetch.rateDist::underflows              0      0.00%      0.00% # Number of instructions fetched each cycle (Total)
system.cpu0.fetch.rateDist::0                22483701     73.65%     73.65% # Number of instructions fetched each cycle (Total)
system.cpu0.fetch.rateDist::1                  214415      0.70%     74.35% # Number of instructions fetched each cycle (Total)
system.cpu0.fetch.rateDist::2                  230112      0.75%     75.10% # Number of instructions fetched each cycle (Total)
system.cpu0.fetch.rateDist::3                 1230595      4.03%     79.13% # Number of instructions fetched each cycle (Total)
system.cpu0.fetch.rateDist::4                  144256      0.47%     79.61% # Number of instructions fetched each cycle (Total)
system.cpu0.fetch.rateDist::5                   42938      0.14%     79.75% # Number of instructions fetched each cycle (Total)
system.cpu0.fetch.rateDist::6                   47533      0.16%     79.90% # Number of instructions fetched each cycle (Total)
system.cpu0.fetch.rateDist::7                  134932      0.44%     80.34% # Number of instructions fetched each cycle (Total)
system.cpu0.fetch.rateDist::8                 6000615     19.66%    100.00% # Number of instructions fetched each cycle (Total)
system.cpu0.fetch.rateDist::overflows               0      0.00%    100.00% # Number of instructions fetched each cycle (Total)
system.cpu0.fetch.rateDist::min_value               0                       # Number of instructions fetched each cycle (Total)
system.cpu0.fetch.rateDist::max_value               8                       # Number of instructions fetched each cycle (Total)
system.cpu0.fetch.rateDist::total            30529097                       # Number of instructions fetched each cycle (Total)
system.cpu0.fetch.branchRate                 0.198828                       # Number of branch fetches per cycle
system.cpu0.fetch.rate                       0.881868                       # Number of inst fetches per cycle
system.cpu0.decode.IdleCycles                 1899064                       # Number of cycles decode is idle
system.cpu0.decode.BlockedCycles             21766970                       # Number of cycles decode is blocked
system.cpu0.decode.RunCycles                  3104136                       # Number of cycles decode is running
system.cpu0.decode.UnblockCycles              3726962                       # Number of cycles decode is unblocking
system.cpu0.decode.SquashCycles                 31965                       # Number of cycles decode is squashing
system.cpu0.decode.DecodedInsts              54139858                       # Number of instructions handled by decode
system.cpu0.rename.SquashCycles                 31965                       # Number of cycles rename is squashing
system.cpu0.rename.IdleCycles                 3183667                       # Number of cycles rename is idle
system.cpu0.rename.BlockCycles                 188667                       # Number of cycles rename is blocking
system.cpu0.rename.serializeStallCycles         11741                       # count of cycles rename stalled for serializing inst
system.cpu0.rename.RunCycles                  5542071                       # Number of cycles rename is running
system.cpu0.rename.UnblockCycles             21570986                       # Number of cycles rename is unblocking
system.cpu0.rename.RenamedInsts              53986034                       # Number of instructions processed by rename
system.cpu0.rename.ROBFullEvents                 3566                       # Number of times rename has blocked due to ROB full
system.cpu0.rename.IQFullEvents                 93756                       # Number of times rename has blocked due to IQ full
system.cpu0.rename.LQFullEvents                 25946                       # Number of times rename has blocked due to LQ full
system.cpu0.rename.SQFullEvents              20195138                       # Number of times rename has blocked due to SQ full
system.cpu0.rename.RenamedOperands           69044268                       # Number of destination operands rename has renamed
system.cpu0.rename.RenameLookups            113967841                       # Number of register rename lookups that rename has made
system.cpu0.rename.int_rename_lookups        62128439                       # Number of integer rename lookups
system.cpu0.rename.fp_rename_lookups          1660738                       # Number of floating rename lookups
system.cpu0.rename.CommittedMaps             67765748                       # Number of HB maps that are committed
system.cpu0.rename.UndoneMaps                 1278520                       # Number of HB maps that are undone due to squashing
system.cpu0.rename.serializingInsts               609                       # count of serializing insts renamed
system.cpu0.rename.tempSerializingInsts           642                       # count of temporary serializing insts renamed
system.cpu0.rename.skidInsts                 22569203                       # count of insts added to the skid buffer
system.cpu0.memDep0.insertedLoads             1945669                       # Number of loads inserted to the mem dependence unit.
system.cpu0.memDep0.insertedStores            6046864                       # Number of stores inserted to the mem dependence unit.
system.cpu0.memDep0.conflictingLoads           112668                       # Number of conflicting loads.
system.cpu0.memDep0.conflictingStores           96356                       # Number of conflicting stores.
system.cpu0.iq.iqInstsAdded                  53683623                       # Number of instructions added to the IQ (excludes non-spec)
system.cpu0.iq.iqNonSpecInstsAdded               3587                       # Number of non-speculative instructions added to the IQ
system.cpu0.iq.iqInstsIssued                 53386615                       # Number of instructions issued
system.cpu0.iq.iqSquashedInstsIssued             9307                       # Number of squashed instructions issued
system.cpu0.iq.iqSquashedInstsExamined         811415                       # Number of squashed instructions iterated over during squash; mainly for profiling
system.cpu0.iq.iqSquashedOperandsExamined      1196985                       # Number of squashed operands that are examined and possibly removed from graph
system.cpu0.iq.iqSquashedNonSpecRemoved          2999                       # Number of squashed non-spec instructions that were removed
system.cpu0.iq.issued_per_cycle::samples     30529097                       # Number of insts issued each cycle
system.cpu0.iq.issued_per_cycle::mean        1.748713                       # Number of insts issued each cycle
system.cpu0.iq.issued_per_cycle::stdev       2.239309                       # Number of insts issued each cycle
system.cpu0.iq.issued_per_cycle::underflows            0      0.00%      0.00% # Number of insts issued each cycle
system.cpu0.iq.issued_per_cycle::0           16136936     52.86%     52.86% # Number of insts issued each cycle
system.cpu0.iq.issued_per_cycle::1            2261776      7.41%     60.27% # Number of insts issued each cycle
system.cpu0.iq.issued_per_cycle::2            2520704      8.26%     68.52% # Number of insts issued each cycle
system.cpu0.iq.issued_per_cycle::3            1651009      5.41%     73.93% # Number of insts issued each cycle
system.cpu0.iq.issued_per_cycle::4            1490457      4.88%     78.81% # Number of insts issued each cycle
system.cpu0.iq.issued_per_cycle::5            4799379     15.72%     94.53% # Number of insts issued each cycle
system.cpu0.iq.issued_per_cycle::6             645141      2.11%     96.65% # Number of insts issued each cycle
system.cpu0.iq.issued_per_cycle::7             888725      2.91%     99.56% # Number of insts issued each cycle
system.cpu0.iq.issued_per_cycle::8             134970      0.44%    100.00% # Number of insts issued each cycle
system.cpu0.iq.issued_per_cycle::overflows            0      0.00%    100.00% # Number of insts issued each cycle
system.cpu0.iq.issued_per_cycle::min_value            0                       # Number of insts issued each cycle
system.cpu0.iq.issued_per_cycle::max_value            8                       # Number of insts issued each cycle
system.cpu0.iq.issued_per_cycle::total       30529097                       # Number of insts issued each cycle
system.cpu0.iq.fu_full::No_OpClass                  0      0.00%      0.00% # attempts to use FU when none available
system.cpu0.iq.fu_full::IntAlu                 398580     94.44%     94.44% # attempts to use FU when none available
system.cpu0.iq.fu_full::IntMult                     0      0.00%     94.44% # attempts to use FU when none available
system.cpu0.iq.fu_full::IntDiv                      0      0.00%     94.44% # attempts to use FU when none available
system.cpu0.iq.fu_full::FloatAdd                 2405      0.57%     95.01% # attempts to use FU when none available
system.cpu0.iq.fu_full::FloatCmp                    0      0.00%     95.01% # attempts to use FU when none available
system.cpu0.iq.fu_full::FloatCvt                    0      0.00%     95.01% # attempts to use FU when none available
system.cpu0.iq.fu_full::FloatMult                   0      0.00%     95.01% # attempts to use FU when none available
system.cpu0.iq.fu_full::FloatMultAcc                0      0.00%     95.01% # attempts to use FU when none available
system.cpu0.iq.fu_full::FloatDiv                    0      0.00%     95.01% # attempts to use FU when none available
system.cpu0.iq.fu_full::FloatMisc                   0      0.00%     95.01% # attempts to use FU when none available
system.cpu0.iq.fu_full::FloatSqrt                   0      0.00%     95.01% # attempts to use FU when none available
system.cpu0.iq.fu_full::SimdAdd                     0      0.00%     95.01% # attempts to use FU when none available
system.cpu0.iq.fu_full::SimdAddAcc                  0      0.00%     95.01% # attempts to use FU when none available
system.cpu0.iq.fu_full::SimdAlu                     0      0.00%     95.01% # attempts to use FU when none available
system.cpu0.iq.fu_full::SimdCmp                     0      0.00%     95.01% # attempts to use FU when none available
system.cpu0.iq.fu_full::SimdCvt                     0      0.00%     95.01% # attempts to use FU when none available
system.cpu0.iq.fu_full::SimdMisc                    0      0.00%     95.01% # attempts to use FU when none available
system.cpu0.iq.fu_full::SimdMult                    0      0.00%     95.01% # attempts to use FU when none available
system.cpu0.iq.fu_full::SimdMultAcc                 0      0.00%     95.01% # attempts to use FU when none available
system.cpu0.iq.fu_full::SimdShift                   0      0.00%     95.01% # attempts to use FU when none available
system.cpu0.iq.fu_full::SimdShiftAcc                0      0.00%     95.01% # attempts to use FU when none available
system.cpu0.iq.fu_full::SimdSqrt                    0      0.00%     95.01% # attempts to use FU when none available
system.cpu0.iq.fu_full::SimdFloatAdd                0      0.00%     95.01% # attempts to use FU when none available
system.cpu0.iq.fu_full::SimdFloatAlu                0      0.00%     95.01% # attempts to use FU when none available
system.cpu0.iq.fu_full::SimdFloatCmp                0      0.00%     95.01% # attempts to use FU when none available
system.cpu0.iq.fu_full::SimdFloatCvt                0      0.00%     95.01% # attempts to use FU when none available
system.cpu0.iq.fu_full::SimdFloatDiv                0      0.00%     95.01% # attempts to use FU when none available
system.cpu0.iq.fu_full::SimdFloatMisc               0      0.00%     95.01% # attempts to use FU when none available
system.cpu0.iq.fu_full::SimdFloatMult               0      0.00%     95.01% # attempts to use FU when none available
system.cpu0.iq.fu_full::SimdFloatMultAcc            0      0.00%     95.01% # attempts to use FU when none available
system.cpu0.iq.fu_full::SimdFloatSqrt               0      0.00%     95.01% # attempts to use FU when none available
system.cpu0.iq.fu_full::MemRead                  3744      0.89%     95.90% # attempts to use FU when none available
system.cpu0.iq.fu_full::MemWrite                 1010      0.24%     96.14% # attempts to use FU when none available
system.cpu0.iq.fu_full::FloatMemRead            15290      3.62%     99.76% # attempts to use FU when none available
system.cpu0.iq.fu_full::FloatMemWrite            1006      0.24%    100.00% # attempts to use FU when none available
system.cpu0.iq.fu_full::IprAccess                   0      0.00%    100.00% # attempts to use FU when none available
system.cpu0.iq.fu_full::InstPrefetch                0      0.00%    100.00% # attempts to use FU when none available
system.cpu0.iq.FU_type_0::No_OpClass            21276      0.04%      0.04% # Type of FU issued
system.cpu0.iq.FU_type_0::IntAlu             44987451     84.27%     84.31% # Type of FU issued
system.cpu0.iq.FU_type_0::IntMult                 413      0.00%     84.31% # Type of FU issued
system.cpu0.iq.FU_type_0::IntDiv                 1372      0.00%     84.31% # Type of FU issued
system.cpu0.iq.FU_type_0::FloatAdd             452751      0.85%     85.16% # Type of FU issued
system.cpu0.iq.FU_type_0::FloatCmp                  0      0.00%     85.16% # Type of FU issued
system.cpu0.iq.FU_type_0::FloatCvt                  0      0.00%     85.16% # Type of FU issued
system.cpu0.iq.FU_type_0::FloatMult                 0      0.00%     85.16% # Type of FU issued
system.cpu0.iq.FU_type_0::FloatMultAcc              0      0.00%     85.16% # Type of FU issued
system.cpu0.iq.FU_type_0::FloatDiv                  0      0.00%     85.16% # Type of FU issued
system.cpu0.iq.FU_type_0::FloatMisc                 0      0.00%     85.16% # Type of FU issued
system.cpu0.iq.FU_type_0::FloatSqrt                 0      0.00%     85.16% # Type of FU issued
system.cpu0.iq.FU_type_0::SimdAdd                   0      0.00%     85.16% # Type of FU issued
system.cpu0.iq.FU_type_0::SimdAddAcc                0      0.00%     85.16% # Type of FU issued
system.cpu0.iq.FU_type_0::SimdAlu                   0      0.00%     85.16% # Type of FU issued
system.cpu0.iq.FU_type_0::SimdCmp                   0      0.00%     85.16% # Type of FU issued
system.cpu0.iq.FU_type_0::SimdCvt                   0      0.00%     85.16% # Type of FU issued
system.cpu0.iq.FU_type_0::SimdMisc                  0      0.00%     85.16% # Type of FU issued
system.cpu0.iq.FU_type_0::SimdMult                  0      0.00%     85.16% # Type of FU issued
system.cpu0.iq.FU_type_0::SimdMultAcc               0      0.00%     85.16% # Type of FU issued
system.cpu0.iq.FU_type_0::SimdShift                 0      0.00%     85.16% # Type of FU issued
system.cpu0.iq.FU_type_0::SimdShiftAcc              0      0.00%     85.16% # Type of FU issued
system.cpu0.iq.FU_type_0::SimdSqrt                  0      0.00%     85.16% # Type of FU issued
system.cpu0.iq.FU_type_0::SimdFloatAdd              0      0.00%     85.16% # Type of FU issued
system.cpu0.iq.FU_type_0::SimdFloatAlu              0      0.00%     85.16% # Type of FU issued
system.cpu0.iq.FU_type_0::SimdFloatCmp              0      0.00%     85.16% # Type of FU issued
system.cpu0.iq.FU_type_0::SimdFloatCvt              0      0.00%     85.16% # Type of FU issued
system.cpu0.iq.FU_type_0::SimdFloatDiv              0      0.00%     85.16% # Type of FU issued
system.cpu0.iq.FU_type_0::SimdFloatMisc             0      0.00%     85.16% # Type of FU issued
system.cpu0.iq.FU_type_0::SimdFloatMult             0      0.00%     85.16% # Type of FU issued
system.cpu0.iq.FU_type_0::SimdFloatMultAcc            0      0.00%     85.16% # Type of FU issued
system.cpu0.iq.FU_type_0::SimdFloatSqrt             0      0.00%     85.16% # Type of FU issued
system.cpu0.iq.FU_type_0::MemRead             1653480      3.10%     88.26% # Type of FU issued
system.cpu0.iq.FU_type_0::MemWrite            5809693     10.88%     99.14% # Type of FU issued
system.cpu0.iq.FU_type_0::FloatMemRead         254102      0.48%     99.61% # Type of FU issued
system.cpu0.iq.FU_type_0::FloatMemWrite        206077      0.39%    100.00% # Type of FU issued
system.cpu0.iq.FU_type_0::IprAccess                 0      0.00%    100.00% # Type of FU issued
system.cpu0.iq.FU_type_0::InstPrefetch              0      0.00%    100.00% # Type of FU issued
system.cpu0.iq.FU_type_0::total              53386615                       # Type of FU issued
system.cpu0.iq.rate                          1.748392                       # Inst issue rate
system.cpu0.iq.fu_busy_cnt                     422035                       # FU busy when requested
system.cpu0.iq.fu_busy_rate                  0.007905                       # FU busy rate (busy events/executed inst)
system.cpu0.iq.int_inst_queue_reads         135694249                       # Number of integer instruction queue reads
system.cpu0.iq.int_inst_queue_writes         53384587                       # Number of integer instruction queue writes
system.cpu0.iq.int_inst_queue_wakeup_accesses     52274709                       # Number of integer instruction queue wakeup accesses
system.cpu0.iq.fp_inst_queue_reads            2039420                       # Number of floating instruction queue reads
system.cpu0.iq.fp_inst_queue_writes           1114969                       # Number of floating instruction queue writes
system.cpu0.iq.fp_inst_queue_wakeup_accesses      1000391                       # Number of floating instruction queue wakeup accesses
system.cpu0.iq.vec_inst_queue_reads                 0                       # Number of vector instruction queue reads
system.cpu0.iq.vec_inst_queue_writes                0                       # Number of vector instruction queue writes
system.cpu0.iq.vec_inst_queue_wakeup_accesses            0                       # Number of vector instruction queue wakeup accesses
system.cpu0.iq.int_alu_accesses              52758533                       # Number of integer alu accesses
system.cpu0.iq.fp_alu_accesses                1028841                       # Number of floating point alu accesses
system.cpu0.iq.vec_alu_accesses                     0                       # Number of vector alu accesses
system.cpu0.iew.lsq.thread0.forwLoads            7695                       # Number of loads that had data forwarded from stores
system.cpu0.iew.lsq.thread0.invAddrLoads            0                       # Number of loads ignored due to an invalid address
system.cpu0.iew.lsq.thread0.squashedLoads       113679                       # Number of loads squashed
system.cpu0.iew.lsq.thread0.ignoredResponses          166                       # Number of memory responses ignored because the instruction is squashed
system.cpu0.iew.lsq.thread0.memOrderViolation          992                       # Number of memory ordering violations
system.cpu0.iew.lsq.thread0.squashedStores        60475                       # Number of stores squashed
system.cpu0.iew.lsq.thread0.invAddrSwpfs            0                       # Number of software prefetches ignored due to an invalid address
system.cpu0.iew.lsq.thread0.blockedLoads            0                       # Number of blocked loads due to partial load-store forwarding
system.cpu0.iew.lsq.thread0.rescheduledLoads           53                       # Number of loads that were rescheduled
system.cpu0.iew.lsq.thread0.cacheBlocked          547                       # Number of times an access to memory failed due to the cache being blocked
system.cpu0.iew.iewIdleCycles                       0                       # Number of cycles IEW is idle
system.cpu0.iew.iewSquashCycles                 31965                       # Number of cycles IEW is squashing
system.cpu0.iew.iewBlockCycles                  99172                       # Number of cycles IEW is blocking
system.cpu0.iew.iewUnblockCycles                77401                       # Number of cycles IEW is unblocking
system.cpu0.iew.iewDispatchedInsts           53687210                       # Number of instructions dispatched to IQ
system.cpu0.iew.iewDispSquashedInsts             3470                       # Number of squashed instructions skipped by dispatch
system.cpu0.iew.iewDispLoadInsts              1945669                       # Number of dispatched load instructions
system.cpu0.iew.iewDispStoreInsts             6046864                       # Number of dispatched store instructions
system.cpu0.iew.iewDispNonSpecInsts              1572                       # Number of dispatched non-speculative instructions
system.cpu0.iew.iewIQFullEvents                   689                       # Number of times the IQ has become full, causing a stall
system.cpu0.iew.iewLSQFullEvents                76529                       # Number of times the LSQ has become full, causing a stall
system.cpu0.iew.memOrderViolationEvents           992                       # Number of memory order violations
system.cpu0.iew.predictedTakenIncorrect          8703                       # Number of branches that were predicted taken incorrectly
system.cpu0.iew.predictedNotTakenIncorrect        30286                       # Number of branches that were predicted not taken incorrectly
system.cpu0.iew.branchMispredicts               38989                       # Number of branch mispredicts detected at execute
system.cpu0.iew.iewExecutedInsts             53310188                       # Number of executed instructions
system.cpu0.iew.iewExecLoadInsts              1892952                       # Number of load instructions executed
system.cpu0.iew.iewExecSquashedInsts            76427                       # Number of squashed instructions skipped in execute
system.cpu0.iew.exec_swp                            0                       # number of swp insts executed
system.cpu0.iew.exec_nop                            0                       # number of nop insts executed
system.cpu0.iew.exec_refs                     7901755                       # number of memory reference insts executed
system.cpu0.iew.exec_branches                 5948868                       # Number of branches executed
system.cpu0.iew.exec_stores                   6008803                       # Number of stores executed
system.cpu0.iew.exec_rate                    1.745889                       # Inst execution rate
system.cpu0.iew.wb_sent                      53290711                       # cumulative count of insts sent to commit
system.cpu0.iew.wb_count                     53275100                       # cumulative count of insts written-back
system.cpu0.iew.wb_producers                 38981334                       # num instructions producing a value
system.cpu0.iew.wb_consumers                 54250414                       # num instructions consuming a value
system.cpu0.iew.wb_rate                      1.744740                       # insts written-back per cycle
system.cpu0.iew.wb_fanout                    0.718544                       # average fanout of values written-back
system.cpu0.commit.commitSquashedInsts         811851                       # The number of squashed insts skipped by commit
system.cpu0.commit.commitNonSpecStalls            588                       # The number of times commit has been forced to stall to communicate backwards
system.cpu0.commit.branchMispredicts            31237                       # The number of times a branch was mispredicted
system.cpu0.commit.committed_per_cycle::samples     30402469                       # Number of insts commited each cycle
system.cpu0.commit.committed_per_cycle::mean     1.739194                       # Number of insts commited each cycle
system.cpu0.commit.committed_per_cycle::stdev     2.332814                       # Number of insts commited each cycle
system.cpu0.commit.committed_per_cycle::underflows            0      0.00%      0.00% # Number of insts commited each cycle
system.cpu0.commit.committed_per_cycle::0     16477453     54.20%     54.20% # Number of insts commited each cycle
system.cpu0.commit.committed_per_cycle::1      1684507      5.54%     59.74% # Number of insts commited each cycle
system.cpu0.commit.committed_per_cycle::2      1515564      4.99%     64.72% # Number of insts commited each cycle
system.cpu0.commit.committed_per_cycle::3      5227934     17.20%     81.92% # Number of insts commited each cycle
system.cpu0.commit.committed_per_cycle::4       333454      1.10%     83.02% # Number of insts commited each cycle
system.cpu0.commit.committed_per_cycle::5      3085060     10.15%     93.16% # Number of insts commited each cycle
system.cpu0.commit.committed_per_cycle::6       394742      1.30%     94.46% # Number of insts commited each cycle
system.cpu0.commit.committed_per_cycle::7       121250      0.40%     94.86% # Number of insts commited each cycle
system.cpu0.commit.committed_per_cycle::8      1562505      5.14%    100.00% # Number of insts commited each cycle
system.cpu0.commit.committed_per_cycle::overflows            0      0.00%    100.00% # Number of insts commited each cycle
system.cpu0.commit.committed_per_cycle::min_value            0                       # Number of insts commited each cycle
system.cpu0.commit.committed_per_cycle::max_value            8                       # Number of insts commited each cycle
system.cpu0.commit.committed_per_cycle::total     30402469                       # Number of insts commited each cycle
system.cpu0.commit.committedInsts            26078095                       # Number of instructions committed
system.cpu0.commit.committedOps              52875795                       # Number of ops (including micro ops) committed
system.cpu0.commit.swp_count                        0                       # Number of s/w prefetches committed
system.cpu0.commit.refs                       7818379                       # Number of memory references committed
system.cpu0.commit.loads                      1831990                       # Number of loads committed
system.cpu0.commit.membars                        220                       # Number of memory barriers committed
system.cpu0.commit.branches                   5917703                       # Number of branches committed
system.cpu0.commit.vec_insts                        0                       # Number of committed Vector instructions.
system.cpu0.commit.fp_insts                    982829                       # Number of committed floating point instructions.
system.cpu0.commit.int_insts                 52346472                       # Number of committed integer instructions.
system.cpu0.commit.function_calls                5409                       # Number of function calls committed.
system.cpu0.commit.op_class_0::No_OpClass        12181      0.02%      0.02% # Class of committed instruction
system.cpu0.commit.op_class_0::IntAlu        44600689     84.35%     84.37% # Class of committed instruction
system.cpu0.commit.op_class_0::IntMult            338      0.00%     84.37% # Class of committed instruction
system.cpu0.commit.op_class_0::IntDiv            1156      0.00%     84.38% # Class of committed instruction
system.cpu0.commit.op_class_0::FloatAdd        443052      0.84%     85.21% # Class of committed instruction
system.cpu0.commit.op_class_0::FloatCmp             0      0.00%     85.21% # Class of committed instruction
system.cpu0.commit.op_class_0::FloatCvt             0      0.00%     85.21% # Class of committed instruction
system.cpu0.commit.op_class_0::FloatMult            0      0.00%     85.21% # Class of committed instruction
system.cpu0.commit.op_class_0::FloatMultAcc            0      0.00%     85.21% # Class of committed instruction
system.cpu0.commit.op_class_0::FloatDiv             0      0.00%     85.21% # Class of committed instruction
system.cpu0.commit.op_class_0::FloatMisc            0      0.00%     85.21% # Class of committed instruction
system.cpu0.commit.op_class_0::FloatSqrt            0      0.00%     85.21% # Class of committed instruction
system.cpu0.commit.op_class_0::SimdAdd              0      0.00%     85.21% # Class of committed instruction
system.cpu0.commit.op_class_0::SimdAddAcc            0      0.00%     85.21% # Class of committed instruction
system.cpu0.commit.op_class_0::SimdAlu              0      0.00%     85.21% # Class of committed instruction
system.cpu0.commit.op_class_0::SimdCmp              0      0.00%     85.21% # Class of committed instruction
system.cpu0.commit.op_class_0::SimdCvt              0      0.00%     85.21% # Class of committed instruction
system.cpu0.commit.op_class_0::SimdMisc             0      0.00%     85.21% # Class of committed instruction
system.cpu0.commit.op_class_0::SimdMult             0      0.00%     85.21% # Class of committed instruction
system.cpu0.commit.op_class_0::SimdMultAcc            0      0.00%     85.21% # Class of committed instruction
system.cpu0.commit.op_class_0::SimdShift            0      0.00%     85.21% # Class of committed instruction
system.cpu0.commit.op_class_0::SimdShiftAcc            0      0.00%     85.21% # Class of committed instruction
system.cpu0.commit.op_class_0::SimdSqrt             0      0.00%     85.21% # Class of committed instruction
system.cpu0.commit.op_class_0::SimdFloatAdd            0      0.00%     85.21% # Class of committed instruction
system.cpu0.commit.op_class_0::SimdFloatAlu            0      0.00%     85.21% # Class of committed instruction
system.cpu0.commit.op_class_0::SimdFloatCmp            0      0.00%     85.21% # Class of committed instruction
system.cpu0.commit.op_class_0::SimdFloatCvt            0      0.00%     85.21% # Class of committed instruction
system.cpu0.commit.op_class_0::SimdFloatDiv            0      0.00%     85.21% # Class of committed instruction
system.cpu0.commit.op_class_0::SimdFloatMisc            0      0.00%     85.21% # Class of committed instruction
system.cpu0.commit.op_class_0::SimdFloatMult            0      0.00%     85.21% # Class of committed instruction
system.cpu0.commit.op_class_0::SimdFloatMultAcc            0      0.00%     85.21% # Class of committed instruction
system.cpu0.commit.op_class_0::SimdFloatSqrt            0      0.00%     85.21% # Class of committed instruction
system.cpu0.commit.op_class_0::MemRead        1589065      3.01%     88.22% # Class of committed instruction
system.cpu0.commit.op_class_0::MemWrite       5782511     10.94%     99.15% # Class of committed instruction
system.cpu0.commit.op_class_0::FloatMemRead       242925      0.46%     99.61% # Class of committed instruction
system.cpu0.commit.op_class_0::FloatMemWrite       203878      0.39%    100.00% # Class of committed instruction
system.cpu0.commit.op_class_0::IprAccess            0      0.00%    100.00% # Class of committed instruction
system.cpu0.commit.op_class_0::InstPrefetch            0      0.00%    100.00% # Class of committed instruction
system.cpu0.commit.op_class_0::total         52875795                       # Class of committed instruction
system.cpu0.commit.bw_lim_events              1562505                       # number cycles where commit BW limit reached
system.cpu0.rob.rob_reads                    82527610                       # The number of ROB reads
system.cpu0.rob.rob_writes                  107504483                       # The number of ROB writes
system.cpu0.timesIdled                            878                       # Number of times that the entire CPU went into an idle state and unscheduled itself
system.cpu0.idleCycles                           5591                       # Total number of cycles that the CPU has spent unscheduled due to idling
system.cpu0.committedInsts                   26078095                       # Number of Instructions Simulated
system.cpu0.committedOps                     52875795                       # Number of Ops (including micro ops) Simulated
system.cpu0.cpi                              1.170894                       # CPI: Cycles Per Instruction
system.cpu0.cpi_total                        1.170894                       # CPI: Total CPI of All Threads
system.cpu0.ipc                              0.854048                       # IPC: Instructions Per Cycle
system.cpu0.ipc_total                        0.854048                       # IPC: Total IPC of All Threads
system.cpu0.int_regfile_reads                61042649                       # number of integer regfile reads
system.cpu0.int_regfile_writes               40520435                       # number of integer regfile writes
system.cpu0.fp_regfile_reads                  1552399                       # number of floating regfile reads
system.cpu0.fp_regfile_writes                  790516                       # number of floating regfile writes
system.cpu0.cc_regfile_reads                 29674667                       # number of cc regfile reads
system.cpu0.cc_regfile_writes                26918762                       # number of cc regfile writes
system.cpu0.misc_regfile_reads               19833745                       # number of misc regfile reads
system.cpu0.dcache.tags.pwrStateResidencyTicks::UNDEFINED  15267344125                       # Cumulative time (in ticks) in various power states
system.cpu0.dcache.tags.replacements           729640                       # number of replacements
system.cpu0.dcache.tags.tagsinuse                1024                       # Cycle average of tags in use
system.cpu0.dcache.tags.total_refs            7143405                       # Total number of references to valid blocks.
system.cpu0.dcache.tags.sampled_refs           729640                       # Sample count of references to valid blocks.
system.cpu0.dcache.tags.avg_refs             9.790314                       # Average number of references to valid blocks.
system.cpu0.dcache.tags.warmup_cycle                0                       # Cycle when the warmup percentage was hit.
system.cpu0.dcache.tags.occ_blocks::cpu0.data         1024                       # Average occupied blocks per requestor
system.cpu0.dcache.tags.occ_percent::cpu0.data            1                       # Average percentage of cache occupancy
system.cpu0.dcache.tags.occ_percent::total            1                       # Average percentage of cache occupancy
system.cpu0.dcache.tags.occ_task_id_blocks::1024         1024                       # Occupied blocks per task id
system.cpu0.dcache.tags.age_task_id_blocks_1024::0          577                       # Occupied blocks per task id
system.cpu0.dcache.tags.age_task_id_blocks_1024::1          447                       # Occupied blocks per task id
system.cpu0.dcache.tags.occ_task_id_percent::1024            1                       # Percentage of cache occupancy per task id
system.cpu0.dcache.tags.tag_accesses         32206824                       # Number of tag accesses
system.cpu0.dcache.tags.data_accesses        32206824                       # Number of data accesses
system.cpu0.dcache.pwrStateResidencyTicks::UNDEFINED  15267344125                       # Cumulative time (in ticks) in various power states
system.cpu0.dcache.ReadReq_hits::cpu0.data      1868812                       # number of ReadReq hits
system.cpu0.dcache.ReadReq_hits::total        1868812                       # number of ReadReq hits
system.cpu0.dcache.WriteReq_hits::cpu0.data      5263664                       # number of WriteReq hits
system.cpu0.dcache.WriteReq_hits::total       5263664                       # number of WriteReq hits
system.cpu0.dcache.demand_hits::cpu0.data      7132476                       # number of demand (read+write) hits
system.cpu0.dcache.demand_hits::total         7132476                       # number of demand (read+write) hits
system.cpu0.dcache.overall_hits::cpu0.data      7132476                       # number of overall hits
system.cpu0.dcache.overall_hits::total        7132476                       # number of overall hits
system.cpu0.dcache.ReadReq_misses::cpu0.data        13943                       # number of ReadReq misses
system.cpu0.dcache.ReadReq_misses::total        13943                       # number of ReadReq misses
system.cpu0.dcache.WriteReq_misses::cpu0.data       722877                       # number of WriteReq misses
system.cpu0.dcache.WriteReq_misses::total       722877                       # number of WriteReq misses
system.cpu0.dcache.demand_misses::cpu0.data       736820                       # number of demand (read+write) misses
system.cpu0.dcache.demand_misses::total        736820                       # number of demand (read+write) misses
system.cpu0.dcache.overall_misses::cpu0.data       736820                       # number of overall misses
system.cpu0.dcache.overall_misses::total       736820                       # number of overall misses
system.cpu0.dcache.ReadReq_miss_latency::cpu0.data    167702500                       # number of ReadReq miss cycles
system.cpu0.dcache.ReadReq_miss_latency::total    167702500                       # number of ReadReq miss cycles
system.cpu0.dcache.WriteReq_miss_latency::cpu0.data   9400877999                       # number of WriteReq miss cycles
system.cpu0.dcache.WriteReq_miss_latency::total   9400877999                       # number of WriteReq miss cycles
system.cpu0.dcache.demand_miss_latency::cpu0.data   9568580499                       # number of demand (read+write) miss cycles
system.cpu0.dcache.demand_miss_latency::total   9568580499                       # number of demand (read+write) miss cycles
system.cpu0.dcache.overall_miss_latency::cpu0.data   9568580499                       # number of overall miss cycles
system.cpu0.dcache.overall_miss_latency::total   9568580499                       # number of overall miss cycles
system.cpu0.dcache.ReadReq_accesses::cpu0.data      1882755                       # number of ReadReq accesses(hits+misses)
system.cpu0.dcache.ReadReq_accesses::total      1882755                       # number of ReadReq accesses(hits+misses)
system.cpu0.dcache.WriteReq_accesses::cpu0.data      5986541                       # number of WriteReq accesses(hits+misses)
system.cpu0.dcache.WriteReq_accesses::total      5986541                       # number of WriteReq accesses(hits+misses)
system.cpu0.dcache.demand_accesses::cpu0.data      7869296                       # number of demand (read+write) accesses
system.cpu0.dcache.demand_accesses::total      7869296                       # number of demand (read+write) accesses
system.cpu0.dcache.overall_accesses::cpu0.data      7869296                       # number of overall (read+write) accesses
system.cpu0.dcache.overall_accesses::total      7869296                       # number of overall (read+write) accesses
system.cpu0.dcache.ReadReq_miss_rate::cpu0.data     0.007406                       # miss rate for ReadReq accesses
system.cpu0.dcache.ReadReq_miss_rate::total     0.007406                       # miss rate for ReadReq accesses
system.cpu0.dcache.WriteReq_miss_rate::cpu0.data     0.120750                       # miss rate for WriteReq accesses
system.cpu0.dcache.WriteReq_miss_rate::total     0.120750                       # miss rate for WriteReq accesses
system.cpu0.dcache.demand_miss_rate::cpu0.data     0.093632                       # miss rate for demand accesses
system.cpu0.dcache.demand_miss_rate::total     0.093632                       # miss rate for demand accesses
system.cpu0.dcache.overall_miss_rate::cpu0.data     0.093632                       # miss rate for overall accesses
system.cpu0.dcache.overall_miss_rate::total     0.093632                       # miss rate for overall accesses
system.cpu0.dcache.ReadReq_avg_miss_latency::cpu0.data 12027.720003                       # average ReadReq miss latency
system.cpu0.dcache.ReadReq_avg_miss_latency::total 12027.720003                       # average ReadReq miss latency
system.cpu0.dcache.WriteReq_avg_miss_latency::cpu0.data 13004.809946                       # average WriteReq miss latency
system.cpu0.dcache.WriteReq_avg_miss_latency::total 13004.809946                       # average WriteReq miss latency
system.cpu0.dcache.demand_avg_miss_latency::cpu0.data 12986.320267                       # average overall miss latency
system.cpu0.dcache.demand_avg_miss_latency::total 12986.320267                       # average overall miss latency
system.cpu0.dcache.overall_avg_miss_latency::cpu0.data 12986.320267                       # average overall miss latency
system.cpu0.dcache.overall_avg_miss_latency::total 12986.320267                       # average overall miss latency
system.cpu0.dcache.blocked_cycles::no_mshrs         2226                       # number of cycles access was blocked
system.cpu0.dcache.blocked_cycles::no_targets            0                       # number of cycles access was blocked
system.cpu0.dcache.blocked::no_mshrs              285                       # number of cycles access was blocked
system.cpu0.dcache.blocked::no_targets              0                       # number of cycles access was blocked
system.cpu0.dcache.avg_blocked_cycles::no_mshrs     7.810526                       # average number of cycles each access was blocked
system.cpu0.dcache.avg_blocked_cycles::no_targets          nan                       # average number of cycles each access was blocked
system.cpu0.dcache.writebacks::writebacks       725198                       # number of writebacks
system.cpu0.dcache.writebacks::total           725198                       # number of writebacks
system.cpu0.dcache.ReadReq_mshr_hits::cpu0.data         7163                       # number of ReadReq MSHR hits
system.cpu0.dcache.ReadReq_mshr_hits::total         7163                       # number of ReadReq MSHR hits
system.cpu0.dcache.WriteReq_mshr_hits::cpu0.data           13                       # number of WriteReq MSHR hits
system.cpu0.dcache.WriteReq_mshr_hits::total           13                       # number of WriteReq MSHR hits
system.cpu0.dcache.demand_mshr_hits::cpu0.data         7176                       # number of demand (read+write) MSHR hits
system.cpu0.dcache.demand_mshr_hits::total         7176                       # number of demand (read+write) MSHR hits
system.cpu0.dcache.overall_mshr_hits::cpu0.data         7176                       # number of overall MSHR hits
system.cpu0.dcache.overall_mshr_hits::total         7176                       # number of overall MSHR hits
system.cpu0.dcache.ReadReq_mshr_misses::cpu0.data         6780                       # number of ReadReq MSHR misses
system.cpu0.dcache.ReadReq_mshr_misses::total         6780                       # number of ReadReq MSHR misses
system.cpu0.dcache.WriteReq_mshr_misses::cpu0.data       722864                       # number of WriteReq MSHR misses
system.cpu0.dcache.WriteReq_mshr_misses::total       722864                       # number of WriteReq MSHR misses
system.cpu0.dcache.demand_mshr_misses::cpu0.data       729644                       # number of demand (read+write) MSHR misses
system.cpu0.dcache.demand_mshr_misses::total       729644                       # number of demand (read+write) MSHR misses
system.cpu0.dcache.overall_mshr_misses::cpu0.data       729644                       # number of overall MSHR misses
system.cpu0.dcache.overall_mshr_misses::total       729644                       # number of overall MSHR misses
system.cpu0.dcache.ReadReq_mshr_miss_latency::cpu0.data     87142500                       # number of ReadReq MSHR miss cycles
system.cpu0.dcache.ReadReq_mshr_miss_latency::total     87142500                       # number of ReadReq MSHR miss cycles
system.cpu0.dcache.WriteReq_mshr_miss_latency::cpu0.data   8677866999                       # number of WriteReq MSHR miss cycles
system.cpu0.dcache.WriteReq_mshr_miss_latency::total   8677866999                       # number of WriteReq MSHR miss cycles
system.cpu0.dcache.demand_mshr_miss_latency::cpu0.data   8765009499                       # number of demand (read+write) MSHR miss cycles
[...]
system.l2.overall_accesses::total              732445                       # number of overall (read+write) accesses
system.l2.ReadExReq_miss_rate::cpu0.data     0.000007                       # miss rate for ReadExReq accesses
system.l2.ReadExReq_miss_rate::total         0.000007                       # miss rate for ReadExReq accesses
system.l2.ReadCleanReq_miss_rate::cpu0.inst     0.001426                       # miss rate for ReadCleanReq accesses
system.l2.ReadCleanReq_miss_rate::total      0.001426                       # miss rate for ReadCleanReq accesses
system.l2.ReadSharedReq_miss_rate::cpu0.data     0.000885                       # miss rate for ReadSharedReq accesses
system.l2.ReadSharedReq_miss_rate::total     0.000885                       # miss rate for ReadSharedReq accesses
system.l2.demand_miss_rate::cpu0.inst        0.001426                       # miss rate for demand accesses
system.l2.demand_miss_rate::cpu0.data        0.000015                       # miss rate for demand accesses
system.l2.demand_miss_rate::total            0.000020                       # miss rate for demand accesses
system.l2.overall_miss_rate::cpu0.inst       0.001426                       # miss rate for overall accesses
system.l2.overall_miss_rate::cpu0.data       0.000015                       # miss rate for overall accesses
system.l2.overall_miss_rate::total           0.000020                       # miss rate for overall accesses
system.l2.ReadExReq_avg_miss_latency::cpu0.data       613600                       # average ReadExReq miss latency
system.l2.ReadExReq_avg_miss_latency::total       613600                       # average ReadExReq miss latency
system.l2.ReadCleanReq_avg_miss_latency::cpu0.inst       482750                       # average ReadCleanReq miss latency
system.l2.ReadCleanReq_avg_miss_latency::total       482750                       # average ReadCleanReq miss latency
system.l2.ReadSharedReq_avg_miss_latency::cpu0.data       614500                       # average ReadSharedReq miss latency
system.l2.ReadSharedReq_avg_miss_latency::total       614500                       # average ReadSharedReq miss latency
system.l2.demand_avg_miss_latency::cpu0.inst       482750                       # average overall miss latency
system.l2.demand_avg_miss_latency::cpu0.data 614090.909091                       # average overall miss latency
system.l2.demand_avg_miss_latency::total 579066.666667                       # average overall miss latency
system.l2.overall_avg_miss_latency::cpu0.inst       482750                       # average overall miss latency
system.l2.overall_avg_miss_latency::cpu0.data 614090.909091                       # average overall miss latency
system.l2.overall_avg_miss_latency::total 579066.666667                       # average overall miss latency
system.l2.blocked_cycles::no_mshrs                  0                       # number of cycles access was blocked
system.l2.blocked_cycles::no_targets                0                       # number of cycles access was blocked
system.l2.blocked::no_mshrs                         0                       # number of cycles access was blocked
system.l2.blocked::no_targets                       0                       # number of cycles access was blocked
system.l2.avg_blocked_cycles::no_mshrs            nan                       # average number of cycles each access was blocked
system.l2.avg_blocked_cycles::no_targets          nan                       # average number of cycles each access was blocked
system.l2.ReadExReq_mshr_misses::cpu0.data            5                       # number of ReadExReq MSHR misses
system.l2.ReadExReq_mshr_misses::total              5                       # number of ReadExReq MSHR misses
system.l2.ReadCleanReq_mshr_misses::cpu0.inst            4                       # number of ReadCleanReq MSHR misses
system.l2.ReadCleanReq_mshr_misses::total            4                       # number of ReadCleanReq MSHR misses
system.l2.ReadSharedReq_mshr_misses::cpu0.data            6                       # number of ReadSharedReq MSHR misses
system.l2.ReadSharedReq_mshr_misses::total            6                       # number of ReadSharedReq MSHR misses
system.l2.demand_mshr_misses::cpu0.inst             4                       # number of demand (read+write) MSHR misses
system.l2.demand_mshr_misses::cpu0.data            11                       # number of demand (read+write) MSHR misses
system.l2.demand_mshr_misses::total                15                       # number of demand (read+write) MSHR misses
system.l2.overall_mshr_misses::cpu0.inst            4                       # number of overall MSHR misses
system.l2.overall_mshr_misses::cpu0.data           11                       # number of overall MSHR misses
system.l2.overall_mshr_misses::total               15                       # number of overall MSHR misses
system.l2.ReadExReq_mshr_miss_latency::cpu0.data      3018000                       # number of ReadExReq MSHR miss cycles
system.l2.ReadExReq_mshr_miss_latency::total      3018000                       # number of ReadExReq MSHR miss cycles
system.l2.ReadCleanReq_mshr_miss_latency::cpu0.inst      1891000                       # number of ReadCleanReq MSHR miss cycles
system.l2.ReadCleanReq_mshr_miss_latency::total      1891000                       # number of ReadCleanReq MSHR miss cycles
system.l2.ReadSharedReq_mshr_miss_latency::cpu0.data      3627000                       # number of ReadSharedReq MSHR miss cycles
system.l2.ReadSharedReq_mshr_miss_latency::total      3627000                       # number of ReadSharedReq MSHR miss cycles
system.l2.demand_mshr_miss_latency::cpu0.inst      1891000                       # number of demand (read+write) MSHR miss cycles
system.l2.demand_mshr_miss_latency::cpu0.data      6645000                       # number of demand (read+write) MSHR miss cycles
system.l2.demand_mshr_miss_latency::total      8536000                       # number of demand (read+write) MSHR miss cycles
system.l2.overall_mshr_miss_latency::cpu0.inst      1891000                       # number of overall MSHR miss cycles
system.l2.overall_mshr_miss_latency::cpu0.data      6645000                       # number of overall MSHR miss cycles
system.l2.overall_mshr_miss_latency::total      8536000                       # number of overall MSHR miss cycles
system.l2.ReadExReq_mshr_miss_rate::cpu0.data     0.000007                       # mshr miss rate for ReadExReq accesses
system.l2.ReadExReq_mshr_miss_rate::total     0.000007                       # mshr miss rate for ReadExReq accesses
system.l2.ReadCleanReq_mshr_miss_rate::cpu0.inst     0.001426                       # mshr miss rate for ReadCleanReq accesses
system.l2.ReadCleanReq_mshr_miss_rate::total     0.001426                       # mshr miss rate for ReadCleanReq accesses
system.l2.ReadSharedReq_mshr_miss_rate::cpu0.data     0.000885                       # mshr miss rate for ReadSharedReq accesses
system.l2.ReadSharedReq_mshr_miss_rate::total     0.000885                       # mshr miss rate for ReadSharedReq accesses
system.l2.demand_mshr_miss_rate::cpu0.inst     0.001426                       # mshr miss rate for demand accesses
system.l2.demand_mshr_miss_rate::cpu0.data     0.000015                       # mshr miss rate for demand accesses
system.l2.demand_mshr_miss_rate::total       0.000020                       # mshr miss rate for demand accesses
system.l2.overall_mshr_miss_rate::cpu0.inst     0.001426                       # mshr miss rate for overall accesses
system.l2.overall_mshr_miss_rate::cpu0.data     0.000015                       # mshr miss rate for overall accesses
system.l2.overall_mshr_miss_rate::total      0.000020                       # mshr miss rate for overall accesses
system.l2.ReadExReq_avg_mshr_miss_latency::cpu0.data       603600                       # average ReadExReq mshr miss latency
system.l2.ReadExReq_avg_mshr_miss_latency::total       603600                       # average ReadExReq mshr miss latency
system.l2.ReadCleanReq_avg_mshr_miss_latency::cpu0.inst       472750                       # average ReadCleanReq mshr miss latency
system.l2.ReadCleanReq_avg_mshr_miss_latency::total       472750                       # average ReadCleanReq mshr miss latency
system.l2.ReadSharedReq_avg_mshr_miss_latency::cpu0.data       604500                       # average ReadSharedReq mshr miss latency
system.l2.ReadSharedReq_avg_mshr_miss_latency::total       604500                       # average ReadSharedReq mshr miss latency
system.l2.demand_avg_mshr_miss_latency::cpu0.inst       472750                       # average overall mshr miss latency
system.l2.demand_avg_mshr_miss_latency::cpu0.data 604090.909091                       # average overall mshr miss latency
system.l2.demand_avg_mshr_miss_latency::total 569066.666667                       # average overall mshr miss latency
system.l2.overall_avg_mshr_miss_latency::cpu0.inst       472750                       # average overall mshr miss latency
system.l2.overall_avg_mshr_miss_latency::cpu0.data 604090.909091                       # average overall mshr miss latency
system.l2.overall_avg_mshr_miss_latency::total 569066.666667                       # average overall mshr miss latency
system.membus.snoop_filter.tot_requests            36                       # Total number of requests made to the snoop filter.
system.membus.snoop_filter.hit_single_requests           21                       # Number of requests hitting in the snoop filter with a single holder of the requested data.
system.membus.snoop_filter.hit_multi_requests            0                       # Number of requests hitting in the snoop filter with multiple (>1) holders of the requested data.
system.membus.snoop_filter.tot_snoops               0                       # Total number of snoops made to the snoop filter.
system.membus.snoop_filter.hit_single_snoops            0                       # Number of snoops hitting in the snoop filter with a single holder of the requested data.
system.membus.snoop_filter.hit_multi_snoops            0                       # Number of snoops hitting in the snoop filter with multiple (>1) holders of the requested data.
system.membus.pwrStateResidencyTicks::UNDEFINED  15267344125                       # Cumulative time (in ticks) in various power states
system.membus.trans_dist::ReadResp                 10                       # Transaction distribution
system.membus.trans_dist::CleanEvict               21                       # Transaction distribution
system.membus.trans_dist::ReadExReq                 5                       # Transaction distribution
system.membus.trans_dist::ReadExResp                5                       # Transaction distribution
system.membus.trans_dist::ReadSharedReq            10                       # Transaction distribution
system.membus.pkt_count_system.l2.mem_side::system.mem_ctrls.port           51                       # Packet count per connected master and slave (bytes)
system.membus.pkt_count_system.l2.mem_side::total           51                       # Packet count per connected master and slave (bytes)
system.membus.pkt_count::total                     51                       # Packet count per connected master and slave (bytes)
system.membus.pkt_size_system.l2.mem_side::system.mem_ctrls.port          960                       # Cumulative packet size per connected master and slave (bytes)
system.membus.pkt_size_system.l2.mem_side::total          960                       # Cumulative packet size per connected master and slave (bytes)
system.membus.pkt_size::total                     960                       # Cumulative packet size per connected master and slave (bytes)
system.membus.snoops                                0                       # Total snoops (count)
system.membus.snoopTraffic                          0                       # Total snoop traffic (bytes)
system.membus.snoop_fanout::samples                15                       # Request fanout histogram
system.membus.snoop_fanout::mean                    0                       # Request fanout histogram
system.membus.snoop_fanout::stdev                   0                       # Request fanout histogram
system.membus.snoop_fanout::underflows              0      0.00%      0.00% # Request fanout histogram
system.membus.snoop_fanout::0                      15    100.00%    100.00% # Request fanout histogram
system.membus.snoop_fanout::1                       0      0.00%    100.00% # Request fanout histogram
system.membus.snoop_fanout::overflows               0      0.00%    100.00% # Request fanout histogram
system.membus.snoop_fanout::min_value               0                       # Request fanout histogram
system.membus.snoop_fanout::max_value               0                       # Request fanout histogram
system.membus.snoop_fanout::total                  15                       # Request fanout histogram
system.membus.reqLayer8.occupancy               38500                       # Layer occupancy (ticks)
system.membus.reqLayer8.utilization               0.0                       # Layer utilization (%)
system.membus.respLayer1.occupancy              82500                       # Layer occupancy (ticks)
system.membus.respLayer1.utilization              0.0                       # Layer utilization (%)
system.tol2bus.snoop_filter.tot_requests      1464894                       # Total number of requests made to the snoop filter.
system.tol2bus.snoop_filter.hit_single_requests       732445                       # Number of requests hitting in the snoop filter with a single holder of the requested data.
system.tol2bus.snoop_filter.hit_multi_requests          332                       # Number of requests hitting in the snoop filter with multiple (>1) holders of the requested data.
system.tol2bus.snoop_filter.tot_snoops              0                       # Total number of snoops made to the snoop filter.
system.tol2bus.snoop_filter.hit_single_snoops            0                       # Number of snoops hitting in the snoop filter with a single holder of the requested data.
system.tol2bus.snoop_filter.hit_multi_snoops            0                       # Number of snoops hitting in the snoop filter with multiple (>1) holders of the requested data.
system.tol2bus.pwrStateResidencyTicks::UNDEFINED  15267344125                       # Cumulative time (in ticks) in various power states
system.tol2bus.trans_dist::ReadResp              9587                       # Transaction distribution
system.tol2bus.trans_dist::WritebackDirty       725198                       # Transaction distribution
system.tol2bus.trans_dist::WritebackClean         2803                       # Transaction distribution
system.tol2bus.trans_dist::CleanEvict            4463                       # Transaction distribution
system.tol2bus.trans_dist::UpgradeReq               4                       # Transaction distribution
system.tol2bus.trans_dist::UpgradeResp              4                       # Transaction distribution
system.tol2bus.trans_dist::ReadExReq           722860                       # Transaction distribution
system.tol2bus.trans_dist::ReadExResp          722860                       # Transaction distribution
system.tol2bus.trans_dist::ReadCleanReq          2807                       # Transaction distribution
system.tol2bus.trans_dist::ReadSharedReq         6780                       # Transaction distribution
system.tol2bus.pkt_count_system.cpu0.icache.mem_side::system.l2.cpu_side         8415                       # Packet count per connected master and slave (bytes)
system.tol2bus.pkt_count_system.cpu0.dcache.mem_side::system.l2.cpu_side      2188928                       # Packet count per connected master and slave (bytes)
system.tol2bus.pkt_count::total               2197343                       # Packet count per connected master and slave (bytes)
system.tol2bus.pkt_size_system.cpu0.icache.mem_side::system.l2.cpu_side       358912                       # Cumulative packet size per connected master and slave (bytes)
system.tol2bus.pkt_size_system.cpu0.dcache.mem_side::system.l2.cpu_side     93109632                       # Cumulative packet size per connected master and slave (bytes)
system.tol2bus.pkt_size::total               93468544                       # Cumulative packet size per connected master and slave (bytes)
system.tol2bus.snoops                              23                       # Total snoops (count)
system.tol2bus.snoopTraffic                       128                       # Total snoop traffic (bytes)
system.tol2bus.snoop_fanout::samples           732472                       # Request fanout histogram
system.tol2bus.snoop_fanout::mean            0.000453                       # Request fanout histogram
system.tol2bus.snoop_fanout::stdev           0.021285                       # Request fanout histogram
system.tol2bus.snoop_fanout::underflows             0      0.00%      0.00% # Request fanout histogram
system.tol2bus.snoop_fanout::0                 732140     99.95%     99.95% # Request fanout histogram
system.tol2bus.snoop_fanout::1                    332      0.05%    100.00% # Request fanout histogram
system.tol2bus.snoop_fanout::2                      0      0.00%    100.00% # Request fanout histogram
system.tol2bus.snoop_fanout::3                      0      0.00%    100.00% # Request fanout histogram
system.tol2bus.snoop_fanout::4                      0      0.00%    100.00% # Request fanout histogram
system.tol2bus.snoop_fanout::5                      0      0.00%    100.00% # Request fanout histogram
system.tol2bus.snoop_fanout::6                      0      0.00%    100.00% # Request fanout histogram
system.tol2bus.snoop_fanout::7                      0      0.00%    100.00% # Request fanout histogram
system.tol2bus.snoop_fanout::8                      0      0.00%    100.00% # Request fanout histogram
system.tol2bus.snoop_fanout::9                      0      0.00%    100.00% # Request fanout histogram
system.tol2bus.snoop_fanout::10                     0      0.00%    100.00% # Request fanout histogram
system.tol2bus.snoop_fanout::11                     0      0.00%    100.00% # Request fanout histogram
system.tol2bus.snoop_fanout::12                     0      0.00%    100.00% # Request fanout histogram
system.tol2bus.snoop_fanout::13                     0      0.00%    100.00% # Request fanout histogram
system.tol2bus.snoop_fanout::14                     0      0.00%    100.00% # Request fanout histogram
system.tol2bus.snoop_fanout::15                     0      0.00%    100.00% # Request fanout histogram
system.tol2bus.snoop_fanout::16                     0      0.00%    100.00% # Request fanout histogram
system.tol2bus.snoop_fanout::overflows              0      0.00%    100.00% # Request fanout histogram
system.tol2bus.snoop_fanout::min_value              0                       # Request fanout histogram
system.tol2bus.snoop_fanout::max_value              1                       # Request fanout histogram
system.tol2bus.snoop_fanout::total             732472                       # Request fanout histogram
system.tol2bus.reqLayer0.occupancy         1460448000                       # Layer occupancy (ticks)
system.tol2bus.reqLayer0.utilization              9.6                       # Layer utilization (%)
system.tol2bus.respLayer0.occupancy           4231957                       # Layer occupancy (ticks)
system.tol2bus.respLayer0.utilization             0.0                       # Layer utilization (%)
system.tol2bus.respLayer1.occupancy        1094462000                       # Layer occupancy (ticks)
system.tol2bus.respLayer1.utilization             7.2                       # Layer utilization (%)

---------- End Simulation Statistics   ----------
