
---------- Begin Simulation Statistics ----------
sim_seconds                                  0.015267                       # Number of seconds simulated
sim_ticks                                 15267344125                       # Number of ticks simulated
final_tick                               6000066241125                       # Number of ticks from beginning of simulation (restored from checkpoints and never reset)
sim_freq                                 1000000000000                       # Frequency of simulated ticks
host_inst_rate                               71868759                       # Simulator instruction rate (inst/s)
host_op_rate                                133768671                       # Simulator op (including micro ops) rate (op/s)
host_tick_rate                              185372768                       # Simulator tick rate (ticks/s)
host_mem_usage                                2332668                       # Number of bytes of host memory used
host_seconds                                    82.36                       # Real time elapsed on the host
sim_insts                                  5919124265                       # Number of instructions simulated
sim_ops                                   11017214901                       # Number of ops (including micro ops) simulated
system.voltage_domain.voltage                       1                       # Voltage in Volts
system.clk_domain.clock                          1000                       # Clock period in ticks
system.mem_ctrls.pwrStateResidencyTicks::UNDEFINED  15267344125                       # Cumulative time (in ticks) in various power states
system.mem_ctrls.bytes_read::cpu0.data       11847040                       # Number of bytes read from this memory
system.mem_ctrls.bytes_read::total           11847040                       # Number of bytes read from this memory
system.mem_ctrls.bytes_written::writebacks        23296                       # Number of bytes written to this memory
system.mem_ctrls.bytes_written::total           23296                       # Number of bytes written to this memory
system.mem_ctrls.num_reads::cpu0.data          185110                       # Number of read requests responded to by this memory
system.mem_ctrls.num_reads::total              185110                       # Number of read requests responded to by this memory
system.mem_ctrls.num_writes::writebacks           364                       # Number of write requests responded to by this memory
system.mem_ctrls.num_writes::total                364                       # Number of write requests responded to by this memory
system.mem_ctrls.bw_read::cpu0.data         775972553                       # Total read bandwidth from this memory (bytes/s)
system.mem_ctrls.bw_read::total             775972553                       # Total read bandwidth from this memory (bytes/s)
system.mem_ctrls.bw_write::writebacks         1525871                       # Write bandwidth from this memory (bytes/s)
system.mem_ctrls.bw_write::total              1525871                       # Write bandwidth from this memory (bytes/s)
system.mem_ctrls.bw_total::writebacks         1525871                       # Total bandwidth to/from this memory (bytes/s)
system.mem_ctrls.bw_total::cpu0.data        775972553                       # Total bandwidth to/from this memory (bytes/s)
system.mem_ctrls.bw_total::total            777498424                       # Total bandwidth to/from this memory (bytes/s)
system.mem_ctrls.readReqs                      185109                       # Number of read requests accepted
system.mem_ctrls.writeReqs                        364                       # Number of write requests accepted
system.mem_ctrls.readBursts                    185109                       # Number of DRAM read bursts, including those serviced by the write queue
system.mem_ctrls.writeBursts                      364                       # Number of DRAM write bursts, including those merged in the write queue
system.mem_ctrls.bytesReadDRAM               11843712                       # Total number of bytes read from DRAM
system.mem_ctrls.bytesReadWrQ                    3264                       # Total number of bytes read from write queue
system.mem_ctrls.bytesWritten                   23552                       # Total number of bytes written to DRAM
system.mem_ctrls.bytesReadSys                11846976                       # Total read bytes from the system interface side
system.mem_ctrls.bytesWrittenSys                23296                       # Total written bytes from the system interface side
system.mem_ctrls.servicedByWrQ                     51                       # Number of DRAM read bursts serviced by the write queue
system.mem_ctrls.mergedWrBursts                     0                       # Number of DRAM write bursts merged with an existing one
system.mem_ctrls.neitherReadNorWriteReqs            0                       # Number of requests that are neither read nor write
system.mem_ctrls.perBankRdBursts::0             11614                       # Per bank write bursts
system.mem_ctrls.perBankRdBursts::1             11383                       # Per bank write bursts
system.mem_ctrls.perBankRdBursts::2             11551                       # Per bank write bursts
system.mem_ctrls.perBankRdBursts::3             11502                       # Per bank write bursts
system.mem_ctrls.perBankRdBursts::4             11405                       # Per bank write bursts
system.mem_ctrls.perBankRdBursts::5             11647                       # Per bank write bursts
system.mem_ctrls.perBankRdBursts::6             11636                       # Per bank write bursts
system.mem_ctrls.perBankRdBursts::7             11501                       # Per bank write bursts
system.mem_ctrls.perBankRdBursts::8             11597                       # Per bank write bursts
system.mem_ctrls.perBankRdBursts::9             11345                       # Per bank write bursts
system.mem_ctrls.perBankRdBursts::10            11172                       # Per bank write bursts
system.mem_ctrls.perBankRdBursts::11            11493                       # Per bank write bursts
system.mem_ctrls.perBankRdBursts::12            11954                       # Per bank write bursts
system.mem_ctrls.perBankRdBursts::13            11937                       # Per bank write bursts
system.mem_ctrls.perBankRdBursts::14            11931                       # Per bank write bursts
system.mem_ctrls.perBankRdBursts::15            11390                       # Per bank write bursts
system.mem_ctrls.perBankWrBursts::0                 0                       # Per bank write bursts
system.mem_ctrls.perBankWrBursts::1                24                       # Per bank write bursts
system.mem_ctrls.perBankWrBursts::2                 0                       # Per bank write bursts
system.mem_ctrls.perBankWrBursts::3                 0                       # Per bank write bursts
system.mem_ctrls.perBankWrBursts::4                 0                       # Per bank write bursts
system.mem_ctrls.perBankWrBursts::5                 0                       # Per bank write bursts
system.mem_ctrls.perBankWrBursts::6                 0                       # Per bank write bursts
system.mem_ctrls.perBankWrBursts::7                 0                       # Per bank write bursts
system.mem_ctrls.perBankWrBursts::8                78                       # Per bank write bursts
system.mem_ctrls.perBankWrBursts::9               125                       # Per bank write bursts
system.mem_ctrls.perBankWrBursts::10               33                       # Per bank write bursts
system.mem_ctrls.perBankWrBursts::11                0                       # Per bank write bursts
system.mem_ctrls.perBankWrBursts::12               96                       # Per bank write bursts
system.mem_ctrls.perBankWrBursts::13               12                       # Per bank write bursts
system.mem_ctrls.perBankWrBursts::14                0                       # Per bank write bursts
system.mem_ctrls.perBankWrBursts::15                0                       # Per bank write bursts
system.mem_ctrls.numRdRetry                         0                       # Number of times read queue was full causing retry
system.mem_ctrls.numWrRetry                         0                       # Number of times write queue was full causing retry
system.mem_ctrls.totGap                   15266732000                       # Total gap between requests
system.mem_ctrls.readPktSize::0                     0                       # Read request sizes (log2)
system.mem_ctrls.readPktSize::1                     0                       # Read request sizes (log2)
system.mem_ctrls.readPktSize::2                     0                       # Read request sizes (log2)
system.mem_ctrls.readPktSize::3                     0                       # Read request sizes (log2)
system.mem_ctrls.readPktSize::4                     0                       # Read request sizes (log2)
system.mem_ctrls.readPktSize::5                     0                       # Read request sizes (log2)
system.mem_ctrls.readPktSize::6                185109                       # Read request sizes (log2)
system.mem_ctrls.writePktSize::0                    0                       # Write request sizes (log2)
system.mem_ctrls.writePktSize::1                    0                       # Write request sizes (log2)
system.mem_ctrls.writePktSize::2                    0                       # Write request sizes (log2)
system.mem_ctrls.writePktSize::3                    0                       # Write request sizes (log2)
system.mem_ctrls.writePktSize::4                    0                       # Write request sizes (log2)
system.mem_ctrls.writePktSize::5                    0                       # Write request sizes (log2)
system.mem_ctrls.writePktSize::6                  364                       # Write request sizes (log2)
system.mem_ctrls.rdQLenPdf::0                  140919                       # What read queue length does an incoming req see
system.mem_ctrls.rdQLenPdf::1                   41222                       # What read queue length does an incoming req see
system.mem_ctrls.rdQLenPdf::2                    2848                       # What read queue length does an incoming req see
system.mem_ctrls.rdQLenPdf::3                      69                       # What read queue length does an incoming req see
system.mem_ctrls.rdQLenPdf::4                       0                       # What read queue length does an incoming req see
system.mem_ctrls.rdQLenPdf::5                       0                       # What read queue length does an incoming req see
system.mem_ctrls.rdQLenPdf::6                       0                       # What read queue length does an incoming req see
system.mem_ctrls.rdQLenPdf::7                       0                       # What read queue length does an incoming req see
system.mem_ctrls.rdQLenPdf::8                       0                       # What read queue length does an incoming req see
system.mem_ctrls.rdQLenPdf::9                       0                       # What read queue length does an incoming req see
system.mem_ctrls.rdQLenPdf::10                      0                       # What read queue length does an incoming req see
system.mem_ctrls.rdQLenPdf::11                      0                       # What read queue length does an incoming req see
system.mem_ctrls.rdQLenPdf::12                      0                       # What read queue length does an incoming req see
system.mem_ctrls.rdQLenPdf::13                      0                       # What read queue length does an incoming req see
system.mem_ctrls.rdQLenPdf::14                      0                       # What read queue length does an incoming req see
system.mem_ctrls.rdQLenPdf::15                      0                       # What read queue length does an incoming req see
system.mem_ctrls.rdQLenPdf::16                      0                       # What read queue length does an incoming req see
system.mem_ctrls.rdQLenPdf::17                      0                       # What read queue length does an incoming req see
system.mem_ctrls.rdQLenPdf::18                      0                       # What read queue length does an incoming req see
system.mem_ctrls.rdQLenPdf::19                      0                       # What read queue length does an incoming req see
system.mem_ctrls.rdQLenPdf::20                      0                       # What read queue length does an incoming req see
system.mem_ctrls.rdQLenPdf::21                      0                       # What read queue length does an incoming req see
system.mem_ctrls.rdQLenPdf::22                      0                       # What read queue length does an incoming req see
system.mem_ctrls.rdQLenPdf::23                      0                       # What read queue length does an incoming req see
system.mem_ctrls.rdQLenPdf::24                      0                       # What read queue length does an incoming req see
system.mem_ctrls.rdQLenPdf::25                      0                       # What read queue length does an incoming req see
system.mem_ctrls.rdQLenPdf::26                      0                       # What read queue length does an incoming req see
system.mem_ctrls.rdQLenPdf::27                      0                       # What read queue length does an incoming req see
system.mem_ctrls.rdQLenPdf::28                      0                       # What read queue length does an incoming req see
system.mem_ctrls.rdQLenPdf::29                      0                       # What read queue length does an incoming req see
system.mem_ctrls.rdQLenPdf::30                      0                       # What read queue length does an incoming req see
system.mem_ctrls.rdQLenPdf::31                      0                       # What read queue length does an incoming req see
system.mem_ctrls.wrQLenPdf::0                       0                       # What write queue length does an incoming req see
system.mem_ctrls.wrQLenPdf::1                       0                       # What write queue length does an incoming req see
system.mem_ctrls.wrQLenPdf::2                       0                       # What write queue length does an incoming req see
system.mem_ctrls.wrQLenPdf::3                       0                       # What write queue length does an incoming req see
system.mem_ctrls.wrQLenPdf::4                       0                       # What write queue length does an incoming req see
system.mem_ctrls.wrQLenPdf::5                       0                       # What write queue length does an incoming req see
system.mem_ctrls.wrQLenPdf::6                       0                       # What write queue length does an incoming req see
system.mem_ctrls.wrQLenPdf::7                       0                       # What write queue length does an incoming req see
system.mem_ctrls.wrQLenPdf::8                       0                       # What write queue length does an incoming req see
system.mem_ctrls.wrQLenPdf::9                       0                       # What write queue length does an incoming req see
system.mem_ctrls.wrQLenPdf::10                      0                       # What write queue length does an incoming req see
system.mem_ctrls.wrQLenPdf::11                      0                       # What write queue length does an incoming req see
system.mem_ctrls.wrQLenPdf::12                      0                       # What write queue length does an incoming req see
system.mem_ctrls.wrQLenPdf::13                      0                       # What write queue length does an incoming req see
system.mem_ctrls.wrQLenPdf::14                      0                       # What write queue length does an incoming req see
system.mem_ctrls.wrQLenPdf::15                      0                       # What write queue length does an incoming req see
system.mem_ctrls.wrQLenPdf::16                      0                       # What write queue length does an incoming req see
system.mem_ctrls.wrQLenPdf::17                     23                       # What write queue length does an incoming req see
system.mem_ctrls.wrQLenPdf::18                     23                       # What write queue length does an incoming req see
system.mem_ctrls.wrQLenPdf::19                     23                       # What write queue length does an incoming req see
system.mem_ctrls.wrQLenPdf::20                     23                       # What write queue length does an incoming req see
system.mem_ctrls.wrQLenPdf::21                     23                       # What write queue length does an incoming req see
system.mem_ctrls.wrQLenPdf::22                     23                       # What write queue length does an incoming req see
system.mem_ctrls.wrQLenPdf::23                     23                       # What write queue length does an incoming req see
system.mem_ctrls.wrQLenPdf::24                     23                       # What write queue length does an incoming req see
system.mem_ctrls.wrQLenPdf::25                     22                       # What write queue length does an incoming req see
system.mem_ctrls.wrQLenPdf::26                     22                       # What write queue length does an incoming req see
system.mem_ctrls.wrQLenPdf::27                     22                       # What write queue length does an incoming req see
system.mem_ctrls.wrQLenPdf::28                     22                       # What write queue length does an incoming req see
system.mem_ctrls.wrQLenPdf::29                     23                       # What write queue length does an incoming req see
system.mem_ctrls.wrQLenPdf::30                     23                       # What write queue length does an incoming req see
system.mem_ctrls.wrQLenPdf::31                     23                       # What write queue length does an incoming req see
system.mem_ctrls.wrQLenPdf::32                     23                       # What write queue length does an incoming req see
system.mem_ctrls.wrQLenPdf::33                      0                       # What write queue length does an incoming req see
system.mem_ctrls.wrQLenPdf::34                      0                       # What write queue length does an incoming req see
system.mem_ctrls.wrQLenPdf::35                      0                       # What write queue length does an incoming req see
system.mem_ctrls.wrQLenPdf::36                      0                       # What write queue length does an incoming req see
system.mem_ctrls.wrQLenPdf::37                      0                       # What write queue length does an incoming req see
system.mem_ctrls.wrQLenPdf::38                      0                       # What write queue length does an incoming req see
system.mem_ctrls.wrQLenPdf::39                      0                       # What write queue length does an incoming req see
system.mem_ctrls.wrQLenPdf::40                      0                       # What write queue length does an incoming req see
system.mem_ctrls.wrQLenPdf::41                      0                       # What write queue length does an incoming req see
system.mem_ctrls.wrQLenPdf::42                      0                       # What write queue length does an incoming req see
system.mem_ctrls.wrQLenPdf::43                      0                       # What write queue length does an incoming req see
system.mem_ctrls.wrQLenPdf::44                      0                       # What write queue length does an incoming req see
system.mem_ctrls.wrQLenPdf::45                      0                       # What write queue length does an incoming req see
system.mem_ctrls.wrQLenPdf::46                      0                       # What write queue length does an incoming req see
system.mem_ctrls.wrQLenPdf::47                      0                       # What write queue length does an incoming req see
system.mem_ctrls.wrQLenPdf::48                      0                       # What write queue length does an incoming req see
system.mem_ctrls.wrQLenPdf::49                      0                       # What write queue length does an incoming req see
system.mem_ctrls.wrQLenPdf::50                      0                       # What write queue length does an incoming req see
system.mem_ctrls.wrQLenPdf::51                      0                       # What write queue length does an incoming req see
system.mem_ctrls.wrQLenPdf::52                      0                       # What write queue length does an incoming req see
system.mem_ctrls.wrQLenPdf::53                      0                       # What write queue length does an incoming req see
system.mem_ctrls.wrQLenPdf::54                      0                       # What write queue length does an incoming req see
system.mem_ctrls.wrQLenPdf::55                      0                       # What write queue length does an incoming req see
system.mem_ctrls.wrQLenPdf::56                      0                       # What write queue length does an incoming req see
system.mem_ctrls.wrQLenPdf::57                      0                       # What write queue length does an incoming req see
system.mem_ctrls.wrQLenPdf::58                      0                       # What write queue length does an incoming req see
system.mem_ctrls.wrQLenPdf::59                      0                       # What write queue length does an incoming req see
system.mem_ctrls.wrQLenPdf::60                      0                       # What write queue length does an incoming req see
system.mem_ctrls.wrQLenPdf::61                      0                       # What write queue length does an incoming req see
system.mem_ctrls.wrQLenPdf::62                      0                       # What write queue length does an incoming req see
system.mem_ctrls.wrQLenPdf::63                      0                       # What write queue length does an incoming req see
system.mem_ctrls.bytesPerActivate::samples        96395                       # Bytes accessed per row activation
system.mem_ctrls.bytesPerActivate::mean    123.125390                       # Bytes accessed per row activation
system.mem_ctrls.bytesPerActivate::gmean   106.108514                       # Bytes accessed per row activation
system.mem_ctrls.bytesPerActivate::stdev    73.802865                       # Bytes accessed per row activation
system.mem_ctrls.bytesPerActivate::0-127        44911     46.59%     46.59% # Bytes accessed per row activation
system.mem_ctrls.bytesPerActivate::128-255        42043     43.62%     90.21% # Bytes accessed per row activation
system.mem_ctrls.bytesPerActivate::256-383         8217      8.52%     98.73% # Bytes accessed per row activation
system.mem_ctrls.bytesPerActivate::384-511         1103      1.14%     99.87% # Bytes accessed per row activation
system.mem_ctrls.bytesPerActivate::512-639           97      0.10%     99.98% # Bytes accessed per row activation
system.mem_ctrls.bytesPerActivate::640-767           11      0.01%     99.99% # Bytes accessed per row activation
system.mem_ctrls.bytesPerActivate::768-895            6      0.01%     99.99% # Bytes accessed per row activation
system.mem_ctrls.bytesPerActivate::896-1023            3      0.00%    100.00% # Bytes accessed per row activation
system.mem_ctrls.bytesPerActivate::1024-1151            4      0.00%    100.00% # Bytes accessed per row activation
system.mem_ctrls.bytesPerActivate::total        96395                       # Bytes accessed per row activation
system.mem_ctrls.rdPerTurnAround::samples           23                       # Reads before turning the bus around for writes
system.mem_ctrls.rdPerTurnAround::mean    8172.347826                       # Reads before turning the bus around for writes
system.mem_ctrls.rdPerTurnAround::gmean   7994.200547                       # Reads before turning the bus around for writes
system.mem_ctrls.rdPerTurnAround::stdev   1673.811291                       # Reads before turning the bus around for writes
system.mem_ctrls.rdPerTurnAround::4608-5119            2      8.70%      8.70% # Reads before turning the bus around for writes
system.mem_ctrls.rdPerTurnAround::5632-6143            1      4.35%     13.04% # Reads before turning the bus around for writes
system.mem_ctrls.rdPerTurnAround::6144-6655            1      4.35%     17.39% # Reads before turning the bus around for writes
system.mem_ctrls.rdPerTurnAround::6656-7167            1      4.35%     21.74% # Reads before turning the bus around for writes
system.mem_ctrls.rdPerTurnAround::7168-7679            4     17.39%     39.13% # Reads before turning the bus around for writes
system.mem_ctrls.rdPerTurnAround::7680-8191            1      4.35%     43.48% # Reads before turning the bus around for writes
system.mem_ctrls.rdPerTurnAround::8192-8703            4     17.39%     60.87% # Reads before turning the bus around for writes
system.mem_ctrls.rdPerTurnAround::8704-9215            2      8.70%     69.57% # Reads before turning the bus around for writes
system.mem_ctrls.rdPerTurnAround::9216-9727            3     13.04%     82.61% # Reads before turning the bus around for writes
system.mem_ctrls.rdPerTurnAround::9728-10239            2      8.70%     91.30% # Reads before turning the bus around for writes
system.mem_ctrls.rdPerTurnAround::10240-10751            1      4.35%     95.65% # Reads before turning the bus around for writes
system.mem_ctrls.rdPerTurnAround::10752-11263            1      4.35%    100.00% # Reads before turning the bus around for writes
system.mem_ctrls.rdPerTurnAround::total            23                       # Reads before turning the bus around for writes
system.mem_ctrls.wrPerTurnAround::samples           23                       # Writes before turning the bus around for reads
system.mem_ctrls.wrPerTurnAround::mean             16                       # Writes before turning the bus around for reads
system.mem_ctrls.wrPerTurnAround::gmean     16.000000                       # Writes before turning the bus around for reads
system.mem_ctrls.wrPerTurnAround::16               23    100.00%    100.00% # Writes before turning the bus around for reads
system.mem_ctrls.wrPerTurnAround::total            23                       # Writes before turning the bus around for reads
system.mem_ctrls.totQLat                   4534218250                       # Total ticks spent queuing
system.mem_ctrls.totMemAccLat              8004055750                       # Total ticks spent from burst creation until serviced by the DRAM
system.mem_ctrls.totBusLat                  925290000                       # Total ticks spent in databus transfers
system.mem_ctrls.avgQLat                     24501.61                       # Average queueing delay per DRAM burst
system.mem_ctrls.avgBusLat                    5000.00                       # Average bus latency per DRAM burst
system.mem_ctrls.avgMemAccLat                43251.61                       # Average memory access latency per DRAM burst
system.mem_ctrls.avgRdBW                       775.75                       # Average DRAM read bandwidth in MiByte/s
system.mem_ctrls.avgWrBW                         1.54                       # Average achieved write bandwidth in MiByte/s
system.mem_ctrls.avgRdBWSys                    775.97                       # Average system read bandwidth in MiByte/s
system.mem_ctrls.avgWrBWSys                      1.53                       # Average system write bandwidth in MiByte/s
system.mem_ctrls.peakBW                      12800.00                       # Theoretical peak bandwidth in MiByte/s
system.mem_ctrls.busUtil                         6.07                       # Data bus utilization in percentage
system.mem_ctrls.busUtilRead                     6.06                       # Data bus utilization in percentage for reads
system.mem_ctrls.busUtilWrite                    0.01                       # Data bus utilization in percentage for writes
system.mem_ctrls.avgRdQLen                       1.30                       # Average read queue length when enqueuing
system.mem_ctrls.avgWrQLen                      25.62                       # Average write queue length when enqueuing
system.mem_ctrls.readRowHits                    88725                       # Number of row buffer hits during reads
system.mem_ctrls.writeRowHits                     314                       # Number of row buffer hits during writes
system.mem_ctrls.readRowHitRate                 47.94                       # Row buffer hit rate for reads
system.mem_ctrls.writeRowHitRate                86.26                       # Row buffer hit rate for writes
system.mem_ctrls.avgGap                      82312.42                       # Average gap between requests
system.mem_ctrls.pageHitRate                    48.02                       # Row buffer hit rate, read and write combined
system.mem_ctrls_0.actEnergy                342962760                       # Energy for activate commands per rank (pJ)
system.mem_ctrls_0.preEnergy                182289030                       # Energy for precharge commands per rank (pJ)
system.mem_ctrls_0.readEnergy               658586460                       # Energy for read commands per rank (pJ)
system.mem_ctrls_0.writeEnergy                 125280                       # Energy for write commands per rank (pJ)
system.mem_ctrls_0.refreshEnergy         1205923680.000000                       # Energy for refresh commands per rank (pJ)
system.mem_ctrls_0.actBackEnergy           1575021720                       # Energy for active background per rank (pJ)
system.mem_ctrls_0.preBackEnergy             24774720                       # Energy for precharge background per rank (pJ)
system.mem_ctrls_0.actPowerDownEnergy      5170057890                       # Energy for active power-down per rank (pJ)
system.mem_ctrls_0.prePowerDownEnergy       156781440                       # Energy for precharge power-down per rank (pJ)
system.mem_ctrls_0.selfRefreshEnergy          1752480                       # Energy for self refresh per rank (pJ)
system.mem_ctrls_0.totalEnergy             9318275460                       # Total energy per rank (pJ)
system.mem_ctrls_0.averagePower            610.340304                       # Core power per rank (mW)
system.mem_ctrls_0.totalIdleTime          11748878750                       # Total Idle time Per DRAM Rank
system.mem_ctrls_0.memoryStateTime::IDLE     10104000                       # Time in different power states
system.mem_ctrls_0.memoryStateTime::REF     510132000                       # Time in different power states
system.mem_ctrls_0.memoryStateTime::SREF      2700750                       # Time in different power states
system.mem_ctrls_0.memoryStateTime::PRE_PDN    408178500                       # Time in different power states
system.mem_ctrls_0.memoryStateTime::ACT    2997653000                       # Time in different power states
system.mem_ctrls_0.memoryStateTime::ACT_PDN  11338575875                       # Time in different power states
system.mem_ctrls_1.actEnergy                345247560                       # Energy for activate commands per rank (pJ)
system.mem_ctrls_1.preEnergy                183529995                       # Energy for precharge commands per rank (pJ)
system.mem_ctrls_1.readEnergy               662734800                       # Energy for read commands per rank (pJ)
system.mem_ctrls_1.writeEnergy                1795680                       # Energy for write commands per rank (pJ)
system.mem_ctrls_1.refreshEnergy         1205923680.000000                       # Energy for refresh commands per rank (pJ)
system.mem_ctrls_1.actBackEnergy           1586669100                       # Energy for active background per rank (pJ)
system.mem_ctrls_1.preBackEnergy             24798240                       # Energy for precharge background per rank (pJ)
system.mem_ctrls_1.actPowerDownEnergy      5190991710                       # Energy for active power-down per rank (pJ)
system.mem_ctrls_1.prePowerDownEnergy       129684960                       # Energy for precharge power-down per rank (pJ)
system.mem_ctrls_1.selfRefreshEnergy     972840.000000                       # Energy for self refresh per rank (pJ)
system.mem_ctrls_1.totalEnergy             9332348565                       # Total energy per rank (pJ)
system.mem_ctrls_1.averagePower            611.262083                       # Core power per rank (mW)
system.mem_ctrls_1.totalIdleTime          11723541500                       # Total Idle time Per DRAM Rank
system.mem_ctrls_1.memoryStateTime::IDLE     10074000                       # Time in different power states
system.mem_ctrls_1.memoryStateTime::REF     510126000                       # Time in different power states
system.mem_ctrls_1.memoryStateTime::SREF      1753000                       # Time in different power states
system.mem_ctrls_1.memoryStateTime::PRE_PDN    337775375                       # Time in different power states
system.mem_ctrls_1.memoryStateTime::ACT    3023221000                       # Time in different power states
system.mem_ctrls_1.memoryStateTime::ACT_PDN  11384394750                       # Time in different power states
system.pwrStateResidencyTicks::UNDEFINED  15267344125                       # Cumulative time (in ticks) in various power states
system.cpu0.branchPred.lookups                1825882                       # Number of BP lookups
system.cpu0.branchPred.condPredicted          1825882                       # Number of conditional branches predicted
system.cpu0.branchPred.condIncorrect            76681                       # Number of conditional branches incorrect
system.cpu0.branchPred.BTBLookups             1505043                       # Number of BTB lookups
system.cpu0.branchPred.BTBHits                      0                       # Number of BTB hits
system.cpu0.branchPred.BTBCorrect                   0                       # Number of correct BTB predictions (this stat may not work properly.
system.cpu0.branchPred.BTBHitPct             0.000000                       # BTB Hit Percentage
system.cpu0.branchPred.usedRAS                  48527                       # Number of times the RAS was used to get a target.
system.cpu0.branchPred.RASInCorrect              7601                       # Number of incorrect RAS predictions.
system.cpu0.branchPred.indirectLookups        1505043                       # Number of indirect predictor lookups.
system.cpu0.branchPred.indirectHits            774802                       # Number of indirect target hits.
system.cpu0.branchPred.indirectMisses          730241                       # Number of indirect misses.
system.cpu0.branchPredindirectMispredicted        25699                       # Number of mispredicted indirect branches.
system.cpu_voltage_domain.voltage                   1                       # Voltage in Volts
system.cpu_clk_domain.clock                       500                       # Clock period in ticks
system.cpu0.dtb.walker.pwrStateResidencyTicks::UNDEFINED  15267344125                       # Cumulative time (in ticks) in various power states
system.cpu0.dtb.rdAccesses                     864212                       # TLB accesses on read requests
system.cpu0.dtb.wrAccesses                      58755                       # TLB accesses on write requests
system.cpu0.dtb.rdMisses                       178099                       # TLB misses on read requests
system.cpu0.dtb.wrMisses                          956                       # TLB misses on write requests
system.cpu0.apic_clk_domain.clock                8000                       # Clock period in ticks
system.cpu0.interrupts.pwrStateResidencyTicks::UNDEFINED  15267344125                       # Cumulative time (in ticks) in various power states
system.cpu0.itb.walker.pwrStateResidencyTicks::UNDEFINED  15267344125                       # Cumulative time (in ticks) in various power states
system.cpu0.itb.rdAccesses                          0                       # TLB accesses on read requests
system.cpu0.itb.wrAccesses                    1508455                       # TLB accesses on write requests
system.cpu0.itb.rdMisses                            0                       # TLB misses on read requests
system.cpu0.itb.wrMisses                         5873                       # TLB misses on write requests
system.cpu0.workload.numSyscalls                    0                       # Number of system calls
system.cpu0.pwrStateResidencyTicks::ON    15267344125                       # Cumulative time (in ticks) in various power states
system.cpu0.numCycles                        30534688                       # number of cpu cycles simulated
system.cpu0.numWorkItemsStarted                     0                       # number of work items this cpu started
system.cpu0.numWorkItemsCompleted                   0                       # number of work items this cpu completed
system.cpu0.fetch.icacheStallCycles           1543344                       # Number of cycles fetch is stalled on an Icache miss
system.cpu0.fetch.Insts                       5307136                       # Number of instructions fetch has processed
system.cpu0.fetch.Branches                    1825882                       # Number of branches that fetch encountered
system.cpu0.fetch.predictedBranches            823329                       # Number of branches that fetch has predicted taken
system.cpu0.fetch.Cycles                     28784447                       # Number of cycles fetch has run and was not squashing or blocked
system.cpu0.fetch.SquashCycles                 157106                       # Number of cycles fetch has spent squashing
system.cpu0.fetch.TlbCycles                      1950                       # Number of cycles fetch has spent waiting for tlb
system.cpu0.fetch.MiscStallCycles                1350                       # Number of cycles fetch has spent waiting on interrupts, or bad addresses, or out of MSHRs
system.cpu0.fetch.PendingTrapStallCycles        54049                       # Number of stall cycles due to pending traps
system.cpu0.fetch.CacheLines                  1502582                       # Number of cache lines fetched
system.cpu0.fetch.IcacheSquashes                 8961                       # Number of outstanding Icache misses that were squashed
system.cpu0.fetch.ItlbSquashes                      6                       # Number of outstanding ITLB misses that were squashed
system.cpu0.fetch.rateDist::samples          30463693                       # Number of instructions fetched each cycle (Total)
system.cpu0.fetch.rateDist::mean             0.350489                       # Number of instructions fetched each cycle (Total)
system.cpu0.fetch.rateDist::stdev            1.486434                       # Number of instructions fetched each cycle (Total)
system.cpu0.fetch.rateDist::underflows              0      0.00%      0.00% # Number of instructions fetched each cycle (Total)
system.cpu0.fetch.rateDist::0                28396156     93.21%     93.21% # Number of instructions fetched each cycle (Total)
system.cpu0.fetch.rateDist::1                   30307      0.10%     93.31% # Number of instructions fetched each cycle (Total)
system.cpu0.fetch.rateDist::2                  747497      2.45%     95.77% # Number of instructions fetched each cycle (Total)
system.cpu0.fetch.rateDist::3                   29498      0.10%     95.86% # Number of instructions fetched each cycle (Total)
system.cpu0.fetch.rateDist::4                  148817      0.49%     96.35% # Number of instructions fetched each cycle (Total)
system.cpu0.fetch.rateDist::5                   68313      0.22%     96.58% # Number of instructions fetched each cycle (Total)
system.cpu0.fetch.rateDist::6                   96096      0.32%     96.89% # Number of instructions fetched each cycle (Total)
system.cpu0.fetch.rateDist::7                   26092      0.09%     96.98% # Number of instructions fetched each cycle (Total)
system.cpu0.fetch.rateDist::8                  920917      3.02%    100.00% # Number of instructions fetched each cycle (Total)
system.cpu0.fetch.rateDist::overflows               0      0.00%    100.00% # Number of instructions fetched each cycle (Total)
system.cpu0.fetch.rateDist::min_value               0                       # Number of instructions fetched each cycle (Total)
system.cpu0.fetch.rateDist::max_value               8                       # Number of instructions fetched each cycle (Total)
system.cpu0.fetch.rateDist::total            30463693                       # Number of instructions fetched each cycle (Total)
system.cpu0.fetch.branchRate                 0.059797                       # Number of branch fetches per cycle
system.cpu0.fetch.rate                       0.173807                       # Number of inst fetches per cycle
system.cpu0.decode.IdleCycles                  771409                       # Number of cycles decode is idle
system.cpu0.decode.BlockedCycles             28257799                       # Number of cycles decode is blocked
system.cpu0.decode.RunCycles                   997022                       # Number of cycles decode is running
system.cpu0.decode.UnblockCycles               358910                       # Number of cycles decode is unblocking
system.cpu0.decode.SquashCycles                 78553                       # Number of cycles decode is squashing
system.cpu0.decode.DecodedInsts               8795170                       # Number of instructions handled by decode
system.cpu0.rename.SquashCycles                 78553                       # Number of cycles rename is squashing
system.cpu0.rename.IdleCycles                  884575                       # Number of cycles rename is idle
system.cpu0.rename.BlockCycles               26828201                       # Number of cycles rename is blocking
system.cpu0.rename.serializeStallCycles         14562                       # count of cycles rename stalled for serializing inst
system.cpu0.rename.RunCycles                  1157801                       # Number of cycles rename is running
system.cpu0.rename.UnblockCycles              1500001                       # Number of cycles rename is unblocking
system.cpu0.rename.RenamedInsts               8441005                       # Number of instructions processed by rename
system.cpu0.rename.ROBFullEvents                71374                       # Number of times rename has blocked due to ROB full
system.cpu0.rename.IQFullEvents               1185249                       # Number of times rename has blocked due to IQ full
system.cpu0.rename.LQFullEvents                264654                       # Number of times rename has blocked due to LQ full
system.cpu0.rename.SQFullEvents                   428                       # Number of times rename has blocked due to SQ full
system.cpu0.rename.RenamedOperands           10056036                       # Number of destination operands rename has renamed
system.cpu0.rename.RenameLookups             23454594                       # Number of register rename lookups that rename has made
system.cpu0.rename.int_rename_lookups        11044691                       # Number of integer rename lookups
system.cpu0.rename.fp_rename_lookups            39373                       # Number of floating rename lookups
system.cpu0.rename.CommittedMaps              3530929                       # Number of HB maps that are committed
system.cpu0.rename.UndoneMaps                 6525112                       # Number of HB maps that are undone due to squashing
system.cpu0.rename.serializingInsts               214                       # count of serializing insts renamed
system.cpu0.rename.tempSerializingInsts           271                       # count of temporary serializing insts renamed
system.cpu0.rename.skidInsts                  2269774                       # count of insts added to the skid buffer
system.cpu0.memDep0.insertedLoads             1516867                       # Number of loads inserted to the mem dependence unit.
system.cpu0.memDep0.insertedStores              88841                       # Number of stores inserted to the mem dependence unit.
system.cpu0.memDep0.conflictingLoads             4225                       # Number of conflicting loads.
system.cpu0.memDep0.conflictingStores            5593                       # Number of conflicting stores.
system.cpu0.iq.iqInstsAdded                   8013779                       # Number of instructions added to the IQ (excludes non-spec)
system.cpu0.iq.iqNonSpecInstsAdded               5359                       # Number of non-speculative instructions added to the IQ
system.cpu0.iq.iqInstsIssued                  5739750                       # Number of instructions issued
system.cpu0.iq.iqSquashedInstsIssued             6835                       # Number of squashed instructions issued
system.cpu0.iq.iqSquashedInstsExamined        5074113                       # Number of squashed instructions iterated over during squash; mainly for profiling
system.cpu0.iq.iqSquashedOperandsExamined     10514660                       # Number of squashed operands that are examined and possibly removed from graph
system.cpu0.iq.iqSquashedNonSpecRemoved          5359                       # Number of squashed non-spec instructions that were removed
system.cpu0.iq.issued_per_cycle::samples     30463693                       # Number of insts issued each cycle
system.cpu0.iq.issued_per_cycle::mean        0.188413                       # Number of insts issued each cycle
system.cpu0.iq.issued_per_cycle::stdev       0.786915                       # Number of insts issued each cycle
system.cpu0.iq.issued_per_cycle::underflows            0      0.00%      0.00% # Number of insts issued each cycle
system.cpu0.iq.issued_per_cycle::0           28098512     92.24%     92.24% # Number of insts issued each cycle
system.cpu0.iq.issued_per_cycle::1             943703      3.10%     95.33% # Number of insts issued each cycle
system.cpu0.iq.issued_per_cycle::2             500213      1.64%     96.98% # Number of insts issued each cycle
system.cpu0.iq.issued_per_cycle::3             334389      1.10%     98.07% # Number of insts issued each cycle
system.cpu0.iq.issued_per_cycle::4             347681      1.14%     99.21% # Number of insts issued each cycle
system.cpu0.iq.issued_per_cycle::5             104930      0.34%     99.56% # Number of insts issued each cycle
system.cpu0.iq.issued_per_cycle::6              84031      0.28%     99.84% # Number of insts issued each cycle
system.cpu0.iq.issued_per_cycle::7              28978      0.10%     99.93% # Number of insts issued each cycle
system.cpu0.iq.issued_per_cycle::8              21256      0.07%    100.00% # Number of insts issued each cycle
system.cpu0.iq.issued_per_cycle::overflows            0      0.00%    100.00% # Number of insts issued each cycle
system.cpu0.iq.issued_per_cycle::min_value            0                       # Number of insts issued each cycle
system.cpu0.iq.issued_per_cycle::max_value            8                       # Number of insts issued each cycle
system.cpu0.iq.issued_per_cycle::total       30463693                       # Number of insts issued each cycle
system.cpu0.iq.fu_full::No_OpClass                  0      0.00%      0.00% # attempts to use FU when none available
system.cpu0.iq.fu_full::IntAlu                  11420     67.02%     67.02% # attempts to use FU when none available
system.cpu0.iq.fu_full::IntMult                     0      0.00%     67.02% # attempts to use FU when none available
system.cpu0.iq.fu_full::IntDiv                      0      0.00%     67.02% # attempts to use FU when none available
system.cpu0.iq.fu_full::FloatAdd                 1142      6.70%     73.72% # attempts to use FU when none available
system.cpu0.iq.fu_full::FloatCmp                    0      0.00%     73.72% # attempts to use FU when none available
system.cpu0.iq.fu_full::FloatCvt                    0      0.00%     73.72% # attempts to use FU when none available
system.cpu0.iq.fu_full::FloatMult                   0      0.00%     73.72% # attempts to use FU when none available
system.cpu0.iq.fu_full::FloatMultAcc                0      0.00%     73.72% # attempts to use FU when none available
system.cpu0.iq.fu_full::FloatDiv                    0      0.00%     73.72% # attempts to use FU when none available
system.cpu0.iq.fu_full::FloatMisc                   0      0.00%     73.72% # attempts to use FU when none available
system.cpu0.iq.fu_full::FloatSqrt                   0      0.00%     73.72% # attempts to use FU when none available
system.cpu0.iq.fu_full::SimdAdd                     0      0.00%     73.72% # attempts to use FU when none available
system.cpu0.iq.fu_full::SimdAddAcc                  0      0.00%     73.72% # attempts to use FU when none available
system.cpu0.iq.fu_full::SimdAlu                     0      0.00%     73.72% # attempts to use FU when none available
system.cpu0.iq.fu_full::SimdCmp                     0      0.00%     73.72% # attempts to use FU when none available
system.cpu0.iq.fu_full::SimdCvt                     0      0.00%     73.72% # attempts to use FU when none available
system.cpu0.iq.fu_full::SimdMisc                    0      0.00%     73.72% # attempts to use FU when none available
system.cpu0.iq.fu_full::SimdMult                    0      0.00%     73.72% # attempts to use FU when none available
system.cpu0.iq.fu_full::SimdMultAcc                 0      0.00%     73.72% # attempts to use FU when none available
system.cpu0.iq.fu_full::SimdShift                   0      0.00%     73.72% # attempts to use FU when none available
system.cpu0.iq.fu_full::SimdShiftAcc                0      0.00%     73.72% # attempts to use FU when none available
system.cpu0.iq.fu_full::SimdSqrt                    0      0.00%     73.72% # attempts to use FU when none available
system.cpu0.iq.fu_full::SimdFloatAdd                0      0.00%     73.72% # attempts to use FU when none available
system.cpu0.iq.fu_full::SimdFloatAlu                0      0.00%     73.72% # attempts to use FU when none available
system.cpu0.iq.fu_full::SimdFloatCmp                0      0.00%     73.72% # attempts to use FU when none available
system.cpu0.iq.fu_full::SimdFloatCvt                0      0.00%     73.72% # attempts to use FU when none available
system.cpu0.iq.fu_full::SimdFloatDiv                0      0.00%     73.72% # attempts to use FU when none available
system.cpu0.iq.fu_full::SimdFloatMisc               0      0.00%     73.72% # attempts to use FU when none available
system.cpu0.iq.fu_full::SimdFloatMult               0      0.00%     73.72% # attempts to use FU when none available
system.cpu0.iq.fu_full::SimdFloatMultAcc            0      0.00%     73.72% # attempts to use FU when none available
system.cpu0.iq.fu_full::SimdFloatSqrt               0      0.00%     73.72% # attempts to use FU when none available
system.cpu0.iq.fu_full::MemRead                  4049     23.76%     97.49% # attempts to use FU when none available
system.cpu0.iq.fu_full::MemWrite                  246      1.44%     98.93% # attempts to use FU when none available
system.cpu0.iq.fu_full::FloatMemRead              138      0.81%     99.74% # attempts to use FU when none available
system.cpu0.iq.fu_full::FloatMemWrite              44      0.26%    100.00% # attempts to use FU when none available
system.cpu0.iq.fu_full::IprAccess                   0      0.00%    100.00% # attempts to use FU when none available
system.cpu0.iq.fu_full::InstPrefetch                0      0.00%    100.00% # attempts to use FU when none available
system.cpu0.iq.FU_type_0::No_OpClass            19819      0.35%      0.35% # Type of FU issued
system.cpu0.iq.FU_type_0::IntAlu              4724734     82.32%     82.66% # Type of FU issued
system.cpu0.iq.FU_type_0::IntMult                1744      0.03%     82.69% # Type of FU issued
system.cpu0.iq.FU_type_0::IntDiv                 9570      0.17%     82.86% # Type of FU issued
system.cpu0.iq.FU_type_0::FloatAdd              14203      0.25%     83.11% # Type of FU issued
system.cpu0.iq.FU_type_0::FloatCmp                  0      0.00%     83.11% # Type of FU issued
system.cpu0.iq.FU_type_0::FloatCvt                  0      0.00%     83.11% # Type of FU issued
system.cpu0.iq.FU_type_0::FloatMult                 0      0.00%     83.11% # Type of FU issued
system.cpu0.iq.FU_type_0::FloatMultAcc              0      0.00%     83.11% # Type of FU issued
system.cpu0.iq.FU_type_0::FloatDiv                  0      0.00%     83.11% # Type of FU issued
system.cpu0.iq.FU_type_0::FloatMisc                 0      0.00%     83.11% # Type of FU issued
system.cpu0.iq.FU_type_0::FloatSqrt                 0      0.00%     83.11% # Type of FU issued
system.cpu0.iq.FU_type_0::SimdAdd                   0      0.00%     83.11% # Type of FU issued
system.cpu0.iq.FU_type_0::SimdAddAcc                0      0.00%     83.11% # Type of FU issued
system.cpu0.iq.FU_type_0::SimdAlu                   0      0.00%     83.11% # Type of FU issued
system.cpu0.iq.FU_type_0::SimdCmp                   0      0.00%     83.11% # Type of FU issued
system.cpu0.iq.FU_type_0::SimdCvt                   0      0.00%     83.11% # Type of FU issued
system.cpu0.iq.FU_type_0::SimdMisc                  0      0.00%     83.11% # Type of FU issued
system.cpu0.iq.FU_type_0::SimdMult                  0      0.00%     83.11% # Type of FU issued
system.cpu0.iq.FU_type_0::SimdMultAcc               0      0.00%     83.11% # Type of FU issued
system.cpu0.iq.FU_type_0::SimdShift                 0      0.00%     83.11% # Type of FU issued
system.cpu0.iq.FU_type_0::SimdShiftAcc              0      0.00%     83.11% # Type of FU issued
system.cpu0.iq.FU_type_0::SimdSqrt                  0      0.00%     83.11% # Type of FU issued
system.cpu0.iq.FU_type_0::SimdFloatAdd              0      0.00%     83.11% # Type of FU issued
system.cpu0.iq.FU_type_0::SimdFloatAlu              0      0.00%     83.11% # Type of FU issued
system.cpu0.iq.FU_type_0::SimdFloatCmp              0      0.00%     83.11% # Type of FU issued
system.cpu0.iq.FU_type_0::SimdFloatCvt              0      0.00%     83.11% # Type of FU issued
system.cpu0.iq.FU_type_0::SimdFloatDiv              0      0.00%     83.11% # Type of FU issued
system.cpu0.iq.FU_type_0::SimdFloatMisc             0      0.00%     83.11% # Type of FU issued
system.cpu0.iq.FU_type_0::SimdFloatMult             0      0.00%     83.11% # Type of FU issued
system.cpu0.iq.FU_type_0::SimdFloatMultAcc            0      0.00%     83.11% # Type of FU issued
system.cpu0.iq.FU_type_0::SimdFloatSqrt             0      0.00%     83.11% # Type of FU issued
system.cpu0.iq.FU_type_0::MemRead              903189     15.74%     98.84% # Type of FU issued
system.cpu0.iq.FU_type_0::MemWrite              63633      1.11%     99.95% # Type of FU issued
system.cpu0.iq.FU_type_0::FloatMemRead           2686      0.05%    100.00% # Type of FU issued
system.cpu0.iq.FU_type_0::FloatMemWrite           172      0.00%    100.00% # Type of FU issued
system.cpu0.iq.FU_type_0::IprAccess                 0      0.00%    100.00% # Type of FU issued
system.cpu0.iq.FU_type_0::InstPrefetch              0      0.00%    100.00% # Type of FU issued
system.cpu0.iq.FU_type_0::total               5739750                       # Type of FU issued
system.cpu0.iq.rate                          0.187975                       # Inst issue rate
system.cpu0.iq.fu_busy_cnt                      17039                       # FU busy when requested
system.cpu0.iq.fu_busy_rate                  0.002969                       # FU busy rate (busy events/executed inst)
system.cpu0.iq.int_inst_queue_reads          41931341                       # Number of integer instruction queue reads
system.cpu0.iq.int_inst_queue_writes         13059085                       # Number of integer instruction queue writes
system.cpu0.iq.int_inst_queue_wakeup_accesses      5502019                       # Number of integer instruction queue wakeup accesses
system.cpu0.iq.fp_inst_queue_reads              35722                       # Number of floating instruction queue reads
system.cpu0.iq.fp_inst_queue_writes             34178                       # Number of floating instruction queue writes
system.cpu0.iq.fp_inst_queue_wakeup_accesses        15379                       # Number of floating instruction queue wakeup accesses
system.cpu0.iq.vec_inst_queue_reads                 0                       # Number of vector instruction queue reads
system.cpu0.iq.vec_inst_queue_writes                0                       # Number of vector instruction queue writes
system.cpu0.iq.vec_inst_queue_wakeup_accesses            0                       # Number of vector instruction queue wakeup accesses
system.cpu0.iq.int_alu_accesses               5718570                       # Number of integer alu accesses
system.cpu0.iq.fp_alu_accesses                  18400                       # Number of floating point alu accesses
system.cpu0.iq.vec_alu_accesses                     0                       # Number of vector alu accesses
system.cpu0.iew.lsq.thread0.forwLoads            4448                       # Number of loads that had data forwarded from stores
system.cpu0.iew.lsq.thread0.invAddrLoads            0                       # Number of loads ignored due to an invalid address
system.cpu0.iew.lsq.thread0.squashedLoads       958035                       # Number of loads squashed
system.cpu0.iew.lsq.thread0.ignoredResponses          179                       # Number of memory responses ignored because the instruction is squashed
system.cpu0.iew.lsq.thread0.memOrderViolation           12                       # Number of memory ordering violations
system.cpu0.iew.lsq.thread0.squashedStores        61503                       # Number of stores squashed
system.cpu0.iew.lsq.thread0.invAddrSwpfs            0                       # Number of software prefetches ignored due to an invalid address
system.cpu0.iew.lsq.thread0.blockedLoads            0                       # Number of blocked loads due to partial load-store forwarding
system.cpu0.iew.lsq.thread0.rescheduledLoads           29                       # Number of loads that were rescheduled
system.cpu0.iew.lsq.thread0.cacheBlocked         1999                       # Number of times an access to memory failed due to the cache being blocked
system.cpu0.iew.iewIdleCycles                       0                       # Number of cycles IEW is idle
system.cpu0.iew.iewSquashCycles                 78553                       # Number of cycles IEW is squashing
system.cpu0.iew.iewBlockCycles               24703682                       # Number of cycles IEW is blocking
system.cpu0.iew.iewUnblockCycles               298430                       # Number of cycles IEW is unblocking
system.cpu0.iew.iewDispatchedInsts            8019138                       # Number of instructions dispatched to IQ
system.cpu0.iew.iewDispSquashedInsts             5317                       # Number of squashed instructions skipped by dispatch
system.cpu0.iew.iewDispLoadInsts              1516867                       # Number of dispatched load instructions
system.cpu0.iew.iewDispStoreInsts               88841                       # Number of dispatched store instructions
system.cpu0.iew.iewDispNonSpecInsts              1939                       # Number of dispatched non-speculative instructions
system.cpu0.iew.iewIQFullEvents                 23327                       # Number of times the IQ has become full, causing a stall
system.cpu0.iew.iewLSQFullEvents                68684                       # Number of times the LSQ has become full, causing a stall
system.cpu0.iew.memOrderViolationEvents            12                       # Number of memory order violations
system.cpu0.iew.predictedTakenIncorrect         40792                       # Number of branches that were predicted taken incorrectly
system.cpu0.iew.predictedNotTakenIncorrect        46197                       # Number of branches that were predicted not taken incorrectly
system.cpu0.iew.branchMispredicts               86989                       # Number of branch mispredicts detected at execute
system.cpu0.iew.iewExecutedInsts              5633930                       # Number of executed instructions
system.cpu0.iew.iewExecLoadInsts               863972                       # Number of load instructions executed
system.cpu0.iew.iewExecSquashedInsts           105816                       # Number of squashed instructions skipped in execute
system.cpu0.iew.exec_swp                            0                       # number of swp insts executed
system.cpu0.iew.exec_nop                            0                       # number of nop insts executed
system.cpu0.iew.exec_refs                      922713                       # number of memory reference insts executed
system.cpu0.iew.exec_branches                  677547                       # Number of branches executed
system.cpu0.iew.exec_stores                     58741                       # Number of stores executed
system.cpu0.iew.exec_rate                    0.184509                       # Inst execution rate
system.cpu0.iew.wb_sent                       5535688                       # cumulative count of insts sent to commit
system.cpu0.iew.wb_count                      5517398                       # cumulative count of insts written-back
system.cpu0.iew.wb_producers                  4067918                       # num instructions producing a value
system.cpu0.iew.wb_consumers                  6417345                       # num instructions consuming a value
system.cpu0.iew.wb_rate                      0.180693                       # insts written-back per cycle
system.cpu0.iew.wb_fanout                    0.633894                       # average fanout of values written-back
system.cpu0.commit.commitSquashedInsts        5074893                       # The number of squashed insts skipped by commit
system.cpu0.commit.branchMispredicts            78548                       # The number of times a branch was mispredicted
system.cpu0.commit.committed_per_cycle::samples     29746357                       # Number of insts commited each cycle
system.cpu0.commit.committed_per_cycle::mean     0.099005                       # Number of insts commited each cycle
system.cpu0.commit.committed_per_cycle::stdev     0.578545                       # Number of insts commited each cycle
system.cpu0.commit.committed_per_cycle::underflows            0      0.00%      0.00% # Number of insts commited each cycle
system.cpu0.commit.committed_per_cycle::0     28466721     95.70%     95.70% # Number of insts commited each cycle
system.cpu0.commit.committed_per_cycle::1       590747      1.99%     97.68% # Number of insts commited each cycle
system.cpu0.commit.committed_per_cycle::2       139970      0.47%     98.15% # Number of insts commited each cycle
system.cpu0.commit.committed_per_cycle::3       383955      1.29%     99.45% # Number of insts commited each cycle
system.cpu0.commit.committed_per_cycle::4        67604      0.23%     99.67% # Number of insts commited each cycle
system.cpu0.commit.committed_per_cycle::5        36300      0.12%     99.79% # Number of insts commited each cycle
system.cpu0.commit.committed_per_cycle::6         6829      0.02%     99.82% # Number of insts commited each cycle
system.cpu0.commit.committed_per_cycle::7         4261      0.01%     99.83% # Number of insts commited each cycle
system.cpu0.commit.committed_per_cycle::8        49970      0.17%    100.00% # Number of insts commited each cycle
system.cpu0.commit.committed_per_cycle::overflows            0      0.00%    100.00% # Number of insts commited each cycle
system.cpu0.commit.committed_per_cycle::min_value            0                       # Number of insts commited each cycle
system.cpu0.commit.committed_per_cycle::max_value            8                       # Number of insts commited each cycle
system.cpu0.commit.committed_per_cycle::total     29746357                       # Number of insts commited each cycle
system.cpu0.commit.committedInsts             1473467                       # Number of instructions committed
system.cpu0.commit.committedOps               2945029                       # Number of ops (including micro ops) committed
system.cpu0.commit.swp_count                        0                       # Number of s/w prefetches committed
system.cpu0.commit.refs                        586173                       # Number of memory references committed
system.cpu0.commit.loads                       558835                       # Number of loads committed
system.cpu0.commit.membars                          0                       # Number of memory barriers committed
system.cpu0.commit.branches                    534256                       # Number of branches committed
system.cpu0.commit.vec_insts                        0                       # Number of committed Vector instructions.
system.cpu0.commit.fp_insts                     10970                       # Number of committed floating point instructions.
system.cpu0.commit.int_insts                  2933975                       # Number of committed integer instructions.
system.cpu0.commit.function_calls                4825                       # Number of function calls committed.
system.cpu0.commit.op_class_0::No_OpClass         3280      0.11%      0.11% # Class of committed instruction
system.cpu0.commit.op_class_0::IntAlu         2338102     79.39%     79.50% # Class of committed instruction
system.cpu0.commit.op_class_0::IntMult            193      0.01%     79.51% # Class of committed instruction
system.cpu0.commit.op_class_0::IntDiv            7909      0.27%     79.78% # Class of committed instruction
system.cpu0.commit.op_class_0::FloatAdd          9372      0.32%     80.10% # Class of committed instruction
system.cpu0.commit.op_class_0::FloatCmp             0      0.00%     80.10% # Class of committed instruction
system.cpu0.commit.op_class_0::FloatCvt             0      0.00%     80.10% # Class of committed instruction
system.cpu0.commit.op_class_0::FloatMult            0      0.00%     80.10% # Class of committed instruction
system.cpu0.commit.op_class_0::FloatMultAcc            0      0.00%     80.10% # Class of committed instruction
system.cpu0.commit.op_class_0::FloatDiv             0      0.00%     80.10% # Class of committed instruction
system.cpu0.commit.op_class_0::FloatMisc            0      0.00%     80.10% # Class of committed instruction
system.cpu0.commit.op_class_0::FloatSqrt            0      0.00%     80.10% # Class of committed instruction
system.cpu0.commit.op_class_0::SimdAdd              0      0.00%     80.10% # Class of committed instruction
system.cpu0.commit.op_class_0::SimdAddAcc            0      0.00%     80.10% # Class of committed instruction
system.cpu0.commit.op_class_0::SimdAlu              0      0.00%     80.10% # Class of committed instruction
system.cpu0.commit.op_class_0::SimdCmp              0      0.00%     80.10% # Class of committed instruction
system.cpu0.commit.op_class_0::SimdCvt              0      0.00%     80.10% # Class of committed instruction
system.cpu0.commit.op_class_0::SimdMisc             0      0.00%     80.10% # Class of committed instruction
system.cpu0.commit.op_class_0::SimdMult             0      0.00%     80.10% # Class of committed instruction
system.cpu0.commit.op_class_0::SimdMultAcc            0      0.00%     80.10% # Class of committed instruction
system.cpu0.commit.op_class_0::SimdShift            0      0.00%     80.10% # Class of committed instruction
system.cpu0.commit.op_class_0::SimdShiftAcc            0      0.00%     80.10% # Class of committed instruction
system.cpu0.commit.op_class_0::SimdSqrt             0      0.00%     80.10% # Class of committed instruction
system.cpu0.commit.op_class_0::SimdFloatAdd            0      0.00%     80.10% # Class of committed instruction
system.cpu0.commit.op_class_0::SimdFloatAlu            0      0.00%     80.10% # Class of committed instruction
system.cpu0.commit.op_class_0::SimdFloatCmp            0      0.00%     80.10% # Class of committed instruction
system.cpu0.commit.op_class_0::SimdFloatCvt            0      0.00%     80.10% # Class of committed instruction
system.cpu0.commit.op_class_0::SimdFloatDiv            0      0.00%     80.10% # Class of committed instruction
system.cpu0.commit.op_class_0::SimdFloatMisc            0      0.00%     80.10% # Class of committed instruction
system.cpu0.commit.op_class_0::SimdFloatMult            0      0.00%     80.10% # Class of committed instruction
system.cpu0.commit.op_class_0::SimdFloatMultAcc            0      0.00%     80.10% # Class of committed instruction
system.cpu0.commit.op_class_0::SimdFloatSqrt            0      0.00%     80.10% # Class of committed instruction
system.cpu0.commit.op_class_0::MemRead         557237     18.92%     99.02% # Class of committed instruction
system.cpu0.commit.op_class_0::MemWrite         27338      0.93%     99.95% # Class of committed instruction
system.cpu0.commit.op_class_0::FloatMemRead         1598      0.05%    100.00% # Class of committed instruction
system.cpu0.commit.op_class_0::FloatMemWrite            0      0.00%    100.00% # Class of committed instruction
system.cpu0.commit.op_class_0::IprAccess            0      0.00%    100.00% # Class of committed instruction
system.cpu0.commit.op_class_0::InstPrefetch            0      0.00%    100.00% # Class of committed instruction
system.cpu0.commit.op_class_0::total          2945029                       # Class of committed instruction
system.cpu0.commit.bw_lim_events                49970                       # number cycles where commit BW limit reached
system.cpu0.rob.rob_reads                    37716309                       # The number of ROB reads
system.cpu0.rob.rob_writes                   16759039                       # The number of ROB writes
system.cpu0.timesIdled                            571                       # Number of times that the entire CPU went into an idle state and unscheduled itself
system.cpu0.idleCycles                          70995                       # Total number of cycles that the CPU has spent unscheduled due to idling
system.cpu0.committedInsts                    1473467                       # Number of Instructions Simulated
system.cpu0.committedOps                      2945029                       # Number of Ops (including micro ops) Simulated
system.cpu0.cpi                             20.723021                       # CPI: Cycles Per Instruction
system.cpu0.cpi_total                       20.723021                       # CPI: Total CPI of All Threads
system.cpu0.ipc                              0.048256                       # IPC: Instructions Per Cycle
system.cpu0.ipc_total                        0.048256                       # IPC: Total IPC of All Threads
system.cpu0.int_regfile_reads                 5597796                       # number of integer regfile reads
system.cpu0.int_regfile_writes                4786607                       # number of integer regfile writes
system.cpu0.fp_regfile_reads                    27473                       # number of floating regfile reads
system.cpu0.fp_regfile_writes                   13689                       # number of floating regfile writes
system.cpu0.cc_regfile_reads                  3534412                       # number of cc regfile reads
system.cpu0.cc_regfile_writes                 1513202                       # number of cc regfile writes
system.cpu0.misc_regfile_reads                2976454                       # number of misc regfile reads
system.cpu0.dcache.tags.pwrStateResidencyTicks::UNDEFINED  15267344125                       # Cumulative time (in ticks) in various power states
system.cpu0.dcache.tags.replacements           294261                       # number of replacements
system.cpu0.dcache.tags.tagsinuse                1024                       # Cycle average of tags in use
system.cpu0.dcache.tags.total_refs             362447                       # Total number of references to valid blocks.
system.cpu0.dcache.tags.sampled_refs           294261                       # Sample count of references to valid blocks.
system.cpu0.dcache.tags.avg_refs             1.231719                       # Average number of references to valid blocks.
system.cpu0.dcache.tags.warmup_cycle                0                       # Cycle when the warmup percentage was hit.
system.cpu0.dcache.tags.occ_blocks::cpu0.data         1024                       # Average occupied blocks per requestor
system.cpu0.dcache.tags.occ_percent::cpu0.data            1                       # Average percentage of cache occupancy
system.cpu0.dcache.tags.occ_percent::total            1                       # Average percentage of cache occupancy
system.cpu0.dcache.tags.occ_task_id_blocks::1024         1024                       # Occupied blocks per task id
system.cpu0.dcache.tags.age_task_id_blocks_1024::0          222                       # Occupied blocks per task id
system.cpu0.dcache.tags.age_task_id_blocks_1024::1          725                       # Occupied blocks per task id
system.cpu0.dcache.tags.age_task_id_blocks_1024::2           77                       # Occupied blocks per task id
system.cpu0.dcache.tags.occ_task_id_percent::1024            1                       # Percentage of cache occupancy per task id
system.cpu0.dcache.tags.tag_accesses          3822261                       # Number of tag accesses
system.cpu0.dcache.tags.data_accesses         3822261                       # Number of data accesses
system.cpu0.dcache.pwrStateResidencyTicks::UNDEFINED  15267344125                       # Cumulative time (in ticks) in various power states
system.cpu0.dcache.ReadReq_hits::cpu0.data       336484                       # number of ReadReq hits
system.cpu0.dcache.ReadReq_hits::total         336484                       # number of ReadReq hits
system.cpu0.dcache.WriteReq_hits::cpu0.data        26262                       # number of WriteReq hits
system.cpu0.dcache.WriteReq_hits::total         26262                       # number of WriteReq hits
system.cpu0.dcache.demand_hits::cpu0.data       362746                       # number of demand (read+write) hits
system.cpu0.dcache.demand_hits::total          362746                       # number of demand (read+write) hits
system.cpu0.dcache.overall_hits::cpu0.data       362746                       # number of overall hits
system.cpu0.dcache.overall_hits::total         362746                       # number of overall hits
system.cpu0.dcache.ReadReq_misses::cpu0.data       518178                       # number of ReadReq misses
system.cpu0.dcache.ReadReq_misses::total       518178                       # number of ReadReq misses
system.cpu0.dcache.WriteReq_misses::cpu0.data         1076                       # number of WriteReq misses
system.cpu0.dcache.WriteReq_misses::total         1076                       # number of WriteReq misses
system.cpu0.dcache.demand_misses::cpu0.data       519254                       # number of demand (read+write) misses
system.cpu0.dcache.demand_misses::total        519254                       # number of demand (read+write) misses
system.cpu0.dcache.overall_misses::cpu0.data       519254                       # number of overall misses
system.cpu0.dcache.overall_misses::total       519254                       # number of overall misses
system.cpu0.dcache.ReadReq_miss_latency::cpu0.data  34687423500                       # number of ReadReq miss cycles
system.cpu0.dcache.ReadReq_miss_latency::total  34687423500                       # number of ReadReq miss cycles
system.cpu0.dcache.WriteReq_miss_latency::cpu0.data     37739999                       # number of WriteReq miss cycles
system.cpu0.dcache.WriteReq_miss_latency::total     37739999                       # number of WriteReq miss cycles
system.cpu0.dcache.demand_miss_latency::cpu0.data  34725163499                       # number of demand (read+write) miss cycles
system.cpu0.dcache.demand_miss_latency::total  34725163499                       # number of demand (read+write) miss cycles
system.cpu0.dcache.overall_miss_latency::cpu0.data  34725163499                       # number of overall miss cycles
system.cpu0.dcache.overall_miss_latency::total  34725163499                       # number of overall miss cycles
system.cpu0.dcache.ReadReq_accesses::cpu0.data       854662                       # number of ReadReq accesses(hits+misses)
system.cpu0.dcache.ReadReq_accesses::total       854662                       # number of ReadReq accesses(hits+misses)
system.cpu0.dcache.WriteReq_accesses::cpu0.data        27338                       # number of WriteReq accesses(hits+misses)
system.cpu0.dcache.WriteReq_accesses::total        27338                       # number of WriteReq accesses(hits+misses)
system.cpu0.dcache.demand_accesses::cpu0.data       882000                       # number of demand (read+write) accesses
system.cpu0.dcache.demand_accesses::total       882000                       # number of demand (read+write) accesses
system.cpu0.dcache.overall_accesses::cpu0.data       882000                       # number of overall (read+write) accesses
system.cpu0.dcache.overall_accesses::total       882000                       # number of overall (read+write) accesses
system.cpu0.dcache.ReadReq_miss_rate::cpu0.data     0.606296                       # miss rate for ReadReq accesses
system.cpu0.dcache.ReadReq_miss_rate::total     0.606296                       # miss rate for ReadReq accesses
system.cpu0.dcache.WriteReq_miss_rate::cpu0.data     0.039359                       # miss rate for WriteReq accesses
system.cpu0.dcache.WriteReq_miss_rate::total     0.039359                       # miss rate for WriteReq accesses
system.cpu0.dcache.demand_miss_rate::cpu0.data     0.588723                       # miss rate for demand accesses
system.cpu0.dcache.demand_miss_rate::total     0.588723                       # miss rate for demand accesses
system.cpu0.dcache.overall_miss_rate::cpu0.data     0.588723                       # miss rate for overall accesses
system.cpu0.dcache.overall_miss_rate::total     0.588723                       # miss rate for overall accesses
system.cpu0.dcache.ReadReq_avg_miss_latency::cpu0.data 66941.135093                       # average ReadReq miss latency
system.cpu0.dcache.ReadReq_avg_miss_latency::total 66941.135093                       # average ReadReq miss latency
system.cpu0.dcache.WriteReq_avg_miss_latency::cpu0.data 35074.348513                       # average WriteReq miss latency
system.cpu0.dcache.WriteReq_avg_miss_latency::total 35074.348513                       # average WriteReq miss latency
system.cpu0.dcache.demand_avg_miss_latency::cpu0.data 66875.100623                       # average overall miss latency
system.cpu0.dcache.demand_avg_miss_latency::total 66875.100623                       # average overall miss latency
system.cpu0.dcache.overall_avg_miss_latency::cpu0.data 66875.100623                       # average overall miss latency
[...]
system.l2.ReadSharedReq_hits::cpu0.data        108343                       # number of ReadSharedReq hits
system.l2.ReadSharedReq_hits::total            108343                       # number of ReadSharedReq hits
system.l2.demand_hits::cpu0.data               109152                       # number of demand (read+write) hits
system.l2.demand_hits::total                   109152                       # number of demand (read+write) hits
system.l2.overall_hits::cpu0.data              109152                       # number of overall hits
system.l2.overall_hits::total                  109152                       # number of overall hits
system.l2.ReadExReq_misses::cpu0.data             264                       # number of ReadExReq misses
system.l2.ReadExReq_misses::total                 264                       # number of ReadExReq misses
system.l2.ReadSharedReq_misses::cpu0.data       184846                       # number of ReadSharedReq misses
system.l2.ReadSharedReq_misses::total          184846                       # number of ReadSharedReq misses
system.l2.demand_misses::cpu0.data             185110                       # number of demand (read+write) misses
system.l2.demand_misses::total                 185110                       # number of demand (read+write) misses
system.l2.overall_misses::cpu0.data            185110                       # number of overall misses
system.l2.overall_misses::total                185110                       # number of overall misses
system.l2.ReadExReq_miss_latency::cpu0.data     26292500                       # number of ReadExReq miss cycles
system.l2.ReadExReq_miss_latency::total      26292500                       # number of ReadExReq miss cycles
system.l2.ReadSharedReq_miss_latency::cpu0.data  17527531500                       # number of ReadSharedReq miss cycles
system.l2.ReadSharedReq_miss_latency::total  17527531500                       # number of ReadSharedReq miss cycles
system.l2.demand_miss_latency::cpu0.data  17553824000                       # number of demand (read+write) miss cycles
system.l2.demand_miss_latency::total      17553824000                       # number of demand (read+write) miss cycles
system.l2.overall_miss_latency::cpu0.data  17553824000                       # number of overall miss cycles
system.l2.overall_miss_latency::total     17553824000                       # number of overall miss cycles
system.l2.WritebackDirty_accesses::writebacks         2986                       # number of WritebackDirty accesses(hits+misses)
system.l2.WritebackDirty_accesses::total         2986                       # number of WritebackDirty accesses(hits+misses)
system.l2.ReadExReq_accesses::cpu0.data          1073                       # number of ReadExReq accesses(hits+misses)
system.l2.ReadExReq_accesses::total              1073                       # number of ReadExReq accesses(hits+misses)
system.l2.ReadSharedReq_accesses::cpu0.data       293189                       # number of ReadSharedReq accesses(hits+misses)
system.l2.ReadSharedReq_accesses::total        293189                       # number of ReadSharedReq accesses(hits+misses)
system.l2.demand_accesses::cpu0.data           294262                       # number of demand (read+write) accesses
system.l2.demand_accesses::total               294262                       # number of demand (read+write) accesses
system.l2.overall_accesses::cpu0.data          294262                       # number of overall (read+write) accesses
system.l2.overall_accesses::total              294262                       # number of overall (read+write) accesses
system.l2.ReadExReq_miss_rate::cpu0.data     0.246039                       # miss rate for ReadExReq accesses
system.l2.ReadExReq_miss_rate::total         0.246039                       # miss rate for ReadExReq accesses
system.l2.ReadSharedReq_miss_rate::cpu0.data     0.630467                       # miss rate for ReadSharedReq accesses
system.l2.ReadSharedReq_miss_rate::total     0.630467                       # miss rate for ReadSharedReq accesses
system.l2.demand_miss_rate::cpu0.data        0.629065                       # miss rate for demand accesses
system.l2.demand_miss_rate::total            0.629065                       # miss rate for demand accesses
system.l2.overall_miss_rate::cpu0.data       0.629065                       # miss rate for overall accesses
system.l2.overall_miss_rate::total           0.629065                       # miss rate for overall accesses
system.l2.ReadExReq_avg_miss_latency::cpu0.data 99592.803030                       # average ReadExReq miss latency
system.l2.ReadExReq_avg_miss_latency::total 99592.803030                       # average ReadExReq miss latency
system.l2.ReadSharedReq_avg_miss_latency::cpu0.data 94822.346710                       # average ReadSharedReq miss latency
system.l2.ReadSharedReq_avg_miss_latency::total 94822.346710                       # average ReadSharedReq miss latency
system.l2.demand_avg_miss_latency::cpu0.data 94829.150235                       # average overall miss latency
system.l2.demand_avg_miss_latency::total 94829.150235                       # average overall miss latency
system.l2.overall_avg_miss_latency::cpu0.data 94829.150235                       # average overall miss latency
system.l2.overall_avg_miss_latency::total 94829.150235                       # average overall miss latency
system.l2.blocked_cycles::no_mshrs                  0                       # number of cycles access was blocked
system.l2.blocked_cycles::no_targets                0                       # number of cycles access was blocked
system.l2.blocked::no_mshrs                         0                       # number of cycles access was blocked
system.l2.blocked::no_targets                       0                       # number of cycles access was blocked
system.l2.avg_blocked_cycles::no_mshrs            nan                       # average number of cycles each access was blocked
system.l2.avg_blocked_cycles::no_targets          nan                       # average number of cycles each access was blocked
system.l2.writebacks::writebacks                  364                       # number of writebacks
system.l2.writebacks::total                       364                       # number of writebacks
system.l2.ReadExReq_mshr_misses::cpu0.data          264                       # number of ReadExReq MSHR misses
system.l2.ReadExReq_mshr_misses::total            264                       # number of ReadExReq MSHR misses
system.l2.ReadSharedReq_mshr_misses::cpu0.data       184846                       # number of ReadSharedReq MSHR misses
system.l2.ReadSharedReq_mshr_misses::total       184846                       # number of ReadSharedReq MSHR misses
system.l2.demand_mshr_misses::cpu0.data        185110                       # number of demand (read+write) MSHR misses
system.l2.demand_mshr_misses::total            185110                       # number of demand (read+write) MSHR misses
system.l2.overall_mshr_misses::cpu0.data       185110                       # number of overall MSHR misses
system.l2.overall_mshr_misses::total           185110                       # number of overall MSHR misses
system.l2.ReadExReq_mshr_miss_latency::cpu0.data     23652500                       # number of ReadExReq MSHR miss cycles
system.l2.ReadExReq_mshr_miss_latency::total     23652500                       # number of ReadExReq MSHR miss cycles
system.l2.ReadSharedReq_mshr_miss_latency::cpu0.data  15679071500                       # number of ReadSharedReq MSHR miss cycles
system.l2.ReadSharedReq_mshr_miss_latency::total  15679071500                       # number of ReadSharedReq MSHR miss cycles
system.l2.demand_mshr_miss_latency::cpu0.data  15702724000                       # number of demand (read+write) MSHR miss cycles
system.l2.demand_mshr_miss_latency::total  15702724000                       # number of demand (read+write) MSHR miss cycles
system.l2.overall_mshr_miss_latency::cpu0.data  15702724000                       # number of overall MSHR miss cycles
system.l2.overall_mshr_miss_latency::total  15702724000                       # number of overall MSHR miss cycles
system.l2.ReadExReq_mshr_miss_rate::cpu0.data     0.246039                       # mshr miss rate for ReadExReq accesses
system.l2.ReadExReq_mshr_miss_rate::total     0.246039                       # mshr miss rate for ReadExReq accesses
system.l2.ReadSharedReq_mshr_miss_rate::cpu0.data     0.630467                       # mshr miss rate for ReadSharedReq accesses
system.l2.ReadSharedReq_mshr_miss_rate::total     0.630467                       # mshr miss rate for ReadSharedReq accesses
system.l2.demand_mshr_miss_rate::cpu0.data     0.629065                       # mshr miss rate for demand accesses
system.l2.demand_mshr_miss_rate::total       0.629065                       # mshr miss rate for demand accesses
system.l2.overall_mshr_miss_rate::cpu0.data     0.629065                       # mshr miss rate for overall accesses
system.l2.overall_mshr_miss_rate::total      0.629065                       # mshr miss rate for overall accesses
system.l2.ReadExReq_avg_mshr_miss_latency::cpu0.data 89592.803030                       # average ReadExReq mshr miss latency
system.l2.ReadExReq_avg_mshr_miss_latency::total 89592.803030                       # average ReadExReq mshr miss latency
system.l2.ReadSharedReq_avg_mshr_miss_latency::cpu0.data 84822.346710                       # average ReadSharedReq mshr miss latency
system.l2.ReadSharedReq_avg_mshr_miss_latency::total 84822.346710                       # average ReadSharedReq mshr miss latency
system.l2.demand_avg_mshr_miss_latency::cpu0.data 84829.150235                       # average overall mshr miss latency
system.l2.demand_avg_mshr_miss_latency::total 84829.150235                       # average overall mshr miss latency
system.l2.overall_avg_mshr_miss_latency::cpu0.data 84829.150235                       # average overall mshr miss latency
system.l2.overall_avg_mshr_miss_latency::total 84829.150235                       # average overall mshr miss latency
system.membus.snoop_filter.tot_requests        370217                       # Total number of requests made to the snoop filter.
system.membus.snoop_filter.hit_single_requests       185110                       # Number of requests hitting in the snoop filter with a single holder of the requested data.
system.membus.snoop_filter.hit_multi_requests            0                       # Number of requests hitting in the snoop filter with multiple (>1) holders of the requested data.
system.membus.snoop_filter.tot_snoops               0                       # Total number of snoops made to the snoop filter.
system.membus.snoop_filter.hit_single_snoops            0                       # Number of snoops hitting in the snoop filter with a single holder of the requested data.
system.membus.snoop_filter.hit_multi_snoops            0                       # Number of snoops hitting in the snoop filter with multiple (>1) holders of the requested data.
system.membus.pwrStateResidencyTicks::UNDEFINED  15267344125                       # Cumulative time (in ticks) in various power states
system.membus.trans_dist::ReadResp             184846                       # Transaction distribution
system.membus.trans_dist::WritebackDirty          364                       # Transaction distribution
system.membus.trans_dist::CleanEvict           184744                       # Transaction distribution
system.membus.trans_dist::ReadExReq               264                       # Transaction distribution
system.membus.trans_dist::ReadExResp              264                       # Transaction distribution
system.membus.trans_dist::ReadSharedReq        184845                       # Transaction distribution
system.membus.pkt_count_system.l2.mem_side::system.mem_ctrls.port       555327                       # Packet count per connected master and slave (bytes)
system.membus.pkt_count_system.l2.mem_side::total       555327                       # Packet count per connected master and slave (bytes)
system.membus.pkt_count::total                 555327                       # Packet count per connected master and slave (bytes)
system.membus.pkt_size_system.l2.mem_side::system.mem_ctrls.port     11870336                       # Cumulative packet size per connected master and slave (bytes)
system.membus.pkt_size_system.l2.mem_side::total     11870336                       # Cumulative packet size per connected master and slave (bytes)
system.membus.pkt_size::total                11870336                       # Cumulative packet size per connected master and slave (bytes)
system.membus.snoops                                0                       # Total snoops (count)
system.membus.snoopTraffic                          0                       # Total snoop traffic (bytes)
system.membus.snoop_fanout::samples            185109                       # Request fanout histogram
system.membus.snoop_fanout::mean                    0                       # Request fanout histogram
system.membus.snoop_fanout::stdev                   0                       # Request fanout histogram
system.membus.snoop_fanout::underflows              0      0.00%      0.00% # Request fanout histogram
system.membus.snoop_fanout::0                  185109    100.00%    100.00% # Request fanout histogram
system.membus.snoop_fanout::1                       0      0.00%    100.00% # Request fanout histogram
system.membus.snoop_fanout::overflows               0      0.00%    100.00% # Request fanout histogram
system.membus.snoop_fanout::min_value               0                       # Request fanout histogram
system.membus.snoop_fanout::max_value               0                       # Request fanout histogram
system.membus.snoop_fanout::total              185109                       # Request fanout histogram
system.membus.reqLayer8.occupancy           434971500                       # Layer occupancy (ticks)
system.membus.reqLayer8.utilization               2.8                       # Layer utilization (%)
system.membus.respLayer1.occupancy         1002645000                       # Layer occupancy (ticks)
system.membus.respLayer1.utilization              6.6                       # Layer utilization (%)
system.tol2bus.snoop_filter.tot_requests       588523                       # Total number of requests made to the snoop filter.
system.tol2bus.snoop_filter.hit_single_requests       294262                       # Number of requests hitting in the snoop filter with a single holder of the requested data.
system.tol2bus.snoop_filter.hit_multi_requests          387                       # Number of requests hitting in the snoop filter with multiple (>1) holders of the requested data.
system.tol2bus.snoop_filter.tot_snoops              2                       # Total number of snoops made to the snoop filter.
system.tol2bus.snoop_filter.hit_single_snoops            2                       # Number of snoops hitting in the snoop filter with a single holder of the requested data.
system.tol2bus.snoop_filter.hit_multi_snoops            0                       # Number of snoops hitting in the snoop filter with multiple (>1) holders of the requested data.
system.tol2bus.pwrStateResidencyTicks::UNDEFINED  15267344125                       # Cumulative time (in ticks) in various power states
system.tol2bus.trans_dist::ReadResp            293188                       # Transaction distribution
system.tol2bus.trans_dist::WritebackDirty         3350                       # Transaction distribution
system.tol2bus.trans_dist::CleanEvict          476021                       # Transaction distribution
system.tol2bus.trans_dist::ReadExReq             1073                       # Transaction distribution
system.tol2bus.trans_dist::ReadExResp            1073                       # Transaction distribution
system.tol2bus.trans_dist::ReadSharedReq       293189                       # Transaction distribution
system.tol2bus.pkt_count_system.cpu0.dcache.mem_side::system.l2.cpu_side       882784                       # Packet count per connected master and slave (bytes)
system.tol2bus.pkt_count::total                882784                       # Packet count per connected master and slave (bytes)
system.tol2bus.pkt_size_system.cpu0.dcache.mem_side::system.l2.cpu_side     19023808                       # Cumulative packet size per connected master and slave (bytes)
system.tol2bus.pkt_size::total               19023808                       # Cumulative packet size per connected master and slave (bytes)
system.tol2bus.snoops                          185110                       # Total snoops (count)
system.tol2bus.snoopTraffic                     23296                       # Total snoop traffic (bytes)
system.tol2bus.snoop_fanout::samples           479372                       # Request fanout histogram
system.tol2bus.snoop_fanout::mean            0.000814                       # Request fanout histogram
system.tol2bus.snoop_fanout::stdev           0.028511                       # Request fanout histogram
system.tol2bus.snoop_fanout::underflows             0      0.00%      0.00% # Request fanout histogram
system.tol2bus.snoop_fanout::0                 478982     99.92%     99.92% # Request fanout histogram
system.tol2bus.snoop_fanout::1                    390      0.08%    100.00% # Request fanout histogram
system.tol2bus.snoop_fanout::2                      0      0.00%    100.00% # Request fanout histogram
system.tol2bus.snoop_fanout::3                      0      0.00%    100.00% # Request fanout histogram
system.tol2bus.snoop_fanout::4                      0      0.00%    100.00% # Request fanout histogram
system.tol2bus.snoop_fanout::5                      0      0.00%    100.00% # Request fanout histogram
system.tol2bus.snoop_fanout::6                      0      0.00%    100.00% # Request fanout histogram
system.tol2bus.snoop_fanout::7                      0      0.00%    100.00% # Request fanout histogram
system.tol2bus.snoop_fanout::8                      0      0.00%    100.00% # Request fanout histogram
system.tol2bus.snoop_fanout::9                      0      0.00%    100.00% # Request fanout histogram
system.tol2bus.snoop_fanout::10                     0      0.00%    100.00% # Request fanout histogram
system.tol2bus.snoop_fanout::11                     0      0.00%    100.00% # Request fanout histogram
system.tol2bus.snoop_fanout::12                     0      0.00%    100.00% # Request fanout histogram
system.tol2bus.snoop_fanout::13                     0      0.00%    100.00% # Request fanout histogram
system.tol2bus.snoop_fanout::14                     0      0.00%    100.00% # Request fanout histogram
system.tol2bus.snoop_fanout::15                     0      0.00%    100.00% # Request fanout histogram
system.tol2bus.snoop_fanout::16                     0      0.00%    100.00% # Request fanout histogram
system.tol2bus.snoop_fanout::overflows              0      0.00%    100.00% # Request fanout histogram
system.tol2bus.snoop_fanout::min_value              0                       # Request fanout histogram
system.tol2bus.snoop_fanout::max_value              1                       # Request fanout histogram
system.tol2bus.snoop_fanout::total             479372                       # Request fanout histogram
system.tol2bus.reqLayer0.occupancy          297247500                       # Layer occupancy (ticks)
system.tol2bus.reqLayer0.utilization              1.9                       # Layer utilization (%)
system.tol2bus.respLayer1.occupancy         441391500                       # Layer occupancy (ticks)
system.tol2bus.respLayer1.utilization             2.9                       # Layer utilization (%)

---------- End Simulation Statistics   ----------
