
---------- Begin Simulation Statistics ----------
sim_seconds                                  0.015267                       # Number of seconds simulated
sim_ticks                                 15267344125                       # Number of ticks simulated
final_tick                               4763411367000                       # Number of ticks from beginning of simulation (restored from checkpoints and never reset)
sim_freq                                 1000000000000                       # Frequency of simulated ticks
host_inst_rate                              120683865                       # Simulator instruction rate (inst/s)
host_op_rate                                224281149                       # Simulator op (including micro ops) rate (op/s)
host_tick_rate                              317829159                       # Simulator tick rate (ticks/s)
host_mem_usage                                2332668                       # Number of bytes of host memory used
host_seconds                                    48.04                       # Real time elapsed on the host
sim_insts                                  5797206890                       # Number of instructions simulated
sim_ops                                   10773639770                       # Number of ops (including micro ops) simulated
system.voltage_domain.voltage                       1                       # Voltage in Volts
system.clk_domain.clock                          1000                       # Clock period in ticks
system.mem_ctrls.pwrStateResidencyTicks::UNDEFINED  15267344125                       # Cumulative time (in ticks) in various power states
system.mem_ctrls.bytes_read::cpu0.data       11830464                       # Number of bytes read from this memory
system.mem_ctrls.bytes_read::total           11830464                       # Number of bytes read from this memory
system.mem_ctrls.bytes_written::writebacks        27264                       # Number of bytes written to this memory
system.mem_ctrls.bytes_written::total           27264                       # Number of bytes written to this memory
system.mem_ctrls.num_reads::cpu0.data          184851                       # Number of read requests responded to by this memory
system.mem_ctrls.num_reads::total              184851                       # Number of read requests responded to by this memory
system.mem_ctrls.num_writes::writebacks           426                       # Number of write requests responded to by this memory
system.mem_ctrls.num_writes::total                426                       # Number of write requests responded to by this memory
system.mem_ctrls.bw_read::cpu0.data         774886837                       # Total read bandwidth from this memory (bytes/s)
system.mem_ctrls.bw_read::total             774886837                       # Total read bandwidth from this memory (bytes/s)
system.mem_ctrls.bw_write::writebacks         1785772                       # Write bandwidth from this memory (bytes/s)
system.mem_ctrls.bw_write::total              1785772                       # Write bandwidth from this memory (bytes/s)
system.mem_ctrls.bw_total::writebacks         1785772                       # Total bandwidth to/from this memory (bytes/s)
system.mem_ctrls.bw_total::cpu0.data        774886837                       # Total bandwidth to/from this memory (bytes/s)
system.mem_ctrls.bw_total::total            776672609                       # Total bandwidth to/from this memory (bytes/s)
system.mem_ctrls.readReqs                      184851                       # Number of read requests accepted
system.mem_ctrls.writeReqs                        426                       # Number of write requests accepted
system.mem_ctrls.readBursts                    184851                       # Number of DRAM read bursts, including those serviced by the write queue
system.mem_ctrls.writeBursts                      426                       # Number of DRAM write bursts, including those merged in the write queue
system.mem_ctrls.bytesReadDRAM               11826944                       # Total number of bytes read from DRAM
system.mem_ctrls.bytesReadWrQ                    3520                       # Total number of bytes read from write queue
system.mem_ctrls.bytesWritten                   27776                       # Total number of bytes written to DRAM
system.mem_ctrls.bytesReadSys                11830464                       # Total read bytes from the system interface side
system.mem_ctrls.bytesWrittenSys                27264                       # Total written bytes from the system interface side
system.mem_ctrls.servicedByWrQ                     55                       # Number of DRAM read bursts serviced by the write queue
system.mem_ctrls.mergedWrBursts                     0                       # Number of DRAM write bursts merged with an existing one
system.mem_ctrls.neitherReadNorWriteReqs            0                       # Number of requests that are neither read nor write
system.mem_ctrls.perBankRdBursts::0             11585                       # Per bank write bursts
system.mem_ctrls.perBankRdBursts::1             11719                       # Per bank write bursts
system.mem_ctrls.perBankRdBursts::2             11547                       # Per bank write bursts
system.mem_ctrls.perBankRdBursts::3             11520                       # Per bank write bursts
system.mem_ctrls.perBankRdBursts::4             11472                       # Per bank write bursts
system.mem_ctrls.perBankRdBursts::5             11645                       # Per bank write bursts
system.mem_ctrls.perBankRdBursts::6             11277                       # Per bank write bursts
system.mem_ctrls.perBankRdBursts::7             11110                       # Per bank write bursts
system.mem_ctrls.perBankRdBursts::8             11042                       # Per bank write bursts
system.mem_ctrls.perBankRdBursts::9             11347                       # Per bank write bursts
system.mem_ctrls.perBankRdBursts::10            11389                       # Per bank write bursts
system.mem_ctrls.perBankRdBursts::11            11625                       # Per bank write bursts
system.mem_ctrls.perBankRdBursts::12            11895                       # Per bank write bursts
system.mem_ctrls.perBankRdBursts::13            12156                       # Per bank write bursts
system.mem_ctrls.perBankRdBursts::14            11733                       # Per bank write bursts
system.mem_ctrls.perBankRdBursts::15            11734                       # Per bank write bursts
system.mem_ctrls.perBankWrBursts::0                47                       # Per bank write bursts
system.mem_ctrls.perBankWrBursts::1               113                       # Per bank write bursts
system.mem_ctrls.perBankWrBursts::2               126                       # Per bank write bursts
system.mem_ctrls.perBankWrBursts::3                40                       # Per bank write bursts
system.mem_ctrls.perBankWrBursts::4                 0                       # Per bank write bursts
system.mem_ctrls.perBankWrBursts::5                13                       # Per bank write bursts
system.mem_ctrls.perBankWrBursts::6                 0                       # Per bank write bursts
system.mem_ctrls.perBankWrBursts::7                 0                       # Per bank write bursts
system.mem_ctrls.perBankWrBursts::8                 0                       # Per bank write bursts
system.mem_ctrls.perBankWrBursts::9                 0                       # Per bank write bursts
system.mem_ctrls.perBankWrBursts::10                0                       # Per bank write bursts
system.mem_ctrls.perBankWrBursts::11                0                       # Per bank write bursts
system.mem_ctrls.perBankWrBursts::12               95                       # Per bank write bursts
system.mem_ctrls.perBankWrBursts::13                0                       # Per bank write bursts
system.mem_ctrls.perBankWrBursts::14                0                       # Per bank write bursts
system.mem_ctrls.perBankWrBursts::15                0                       # Per bank write bursts
system.mem_ctrls.numRdRetry                         0                       # Number of times read queue was full causing retry
system.mem_ctrls.numWrRetry                         0                       # Number of times write queue was full causing retry
system.mem_ctrls.totGap                   15267366000                       # Total gap between requests
system.mem_ctrls.readPktSize::0                     0                       # Read request sizes (log2)
system.mem_ctrls.readPktSize::1                     0                       # Read request sizes (log2)
system.mem_ctrls.readPktSize::2                     0                       # Read request sizes (log2)
system.mem_ctrls.readPktSize::3                     0                       # Read request sizes (log2)
system.mem_ctrls.readPktSize::4                     0                       # Read request sizes (log2)
system.mem_ctrls.readPktSize::5                     0                       # Read request sizes (log2)
system.mem_ctrls.readPktSize::6                184851                       # Read request sizes (log2)
system.mem_ctrls.writePktSize::0                    0                       # Write request sizes (log2)
system.mem_ctrls.writePktSize::1                    0                       # Write request sizes (log2)
system.mem_ctrls.writePktSize::2                    0                       # Write request sizes (log2)
system.mem_ctrls.writePktSize::3                    0                       # Write request sizes (log2)
system.mem_ctrls.writePktSize::4                    0                       # Write request sizes (log2)
system.mem_ctrls.writePktSize::5                    0                       # Write request sizes (log2)
system.mem_ctrls.writePktSize::6                  426                       # Write request sizes (log2)
system.mem_ctrls.rdQLenPdf::0                  141485                       # What read queue length does an incoming req see
system.mem_ctrls.rdQLenPdf::1                   40592                       # What read queue length does an incoming req see
system.mem_ctrls.rdQLenPdf::2                    2660                       # What read queue length does an incoming req see
system.mem_ctrls.rdQLenPdf::3                      59                       # What read queue length does an incoming req see
system.mem_ctrls.rdQLenPdf::4                       0                       # What read queue length does an incoming req see
system.mem_ctrls.rdQLenPdf::5                       0                       # What read queue length does an incoming req see
system.mem_ctrls.rdQLenPdf::6                       0                       # What read queue length does an incoming req see
system.mem_ctrls.rdQLenPdf::7                       0                       # What read queue length does an incoming req see
system.mem_ctrls.rdQLenPdf::8                       0                       # What read queue length does an incoming req see
system.mem_ctrls.rdQLenPdf::9                       0                       # What read queue length does an incoming req see
system.mem_ctrls.rdQLenPdf::10                      0                       # What read queue length does an incoming req see
system.mem_ctrls.rdQLenPdf::11                      0                       # What read queue length does an incoming req see
system.mem_ctrls.rdQLenPdf::12                      0                       # What read queue length does an incoming req see
system.mem_ctrls.rdQLenPdf::13                      0                       # What read queue length does an incoming req see
system.mem_ctrls.rdQLenPdf::14                      0                       # What read queue length does an incoming req see
system.mem_ctrls.rdQLenPdf::15                      0                       # What read queue length does an incoming req see
system.mem_ctrls.rdQLenPdf::16                      0                       # What read queue length does an incoming req see
system.mem_ctrls.rdQLenPdf::17                      0                       # What read queue length does an incoming req see
system.mem_ctrls.rdQLenPdf::18                      0                       # What read queue length does an incoming req see
system.mem_ctrls.rdQLenPdf::19                      0                       # What read queue length does an incoming req see
system.mem_ctrls.rdQLenPdf::20                      0                       # What read queue length does an incoming req see
system.mem_ctrls.rdQLenPdf::21                      0                       # What read queue length does an incoming req see
system.mem_ctrls.rdQLenPdf::22                      0                       # What read queue length does an incoming req see
system.mem_ctrls.rdQLenPdf::23                      0                       # What read queue length does an incoming req see
system.mem_ctrls.rdQLenPdf::24                      0                       # What read queue length does an incoming req see
system.mem_ctrls.rdQLenPdf::25                      0                       # What read queue length does an incoming req see
system.mem_ctrls.rdQLenPdf::26                      0                       # What read queue length does an incoming req see
system.mem_ctrls.rdQLenPdf::27                      0                       # What read queue length does an incoming req see
system.mem_ctrls.rdQLenPdf::28                      0                       # What read queue length does an incoming req see
system.mem_ctrls.rdQLenPdf::29                      0                       # What read queue length does an incoming req see
system.mem_ctrls.rdQLenPdf::30                      0                       # What read queue length does an incoming req see
system.mem_ctrls.rdQLenPdf::31                      0                       # What read queue length does an incoming req see
system.mem_ctrls.wrQLenPdf::0                       0                       # What write queue length does an incoming req see
system.mem_ctrls.wrQLenPdf::1                       0                       # What write queue length does an incoming req see
system.mem_ctrls.wrQLenPdf::2                       0                       # What write queue length does an incoming req see
system.mem_ctrls.wrQLenPdf::3                       0                       # What write queue length does an incoming req see
system.mem_ctrls.wrQLenPdf::4                       0                       # What write queue length does an incoming req see
system.mem_ctrls.wrQLenPdf::5                       0                       # What write queue length does an incoming req see
system.mem_ctrls.wrQLenPdf::6                       0                       # What write queue length does an incoming req see
system.mem_ctrls.wrQLenPdf::7                       0                       # What write queue length does an incoming req see
system.mem_ctrls.wrQLenPdf::8                       0                       # What write queue length does an incoming req see
system.mem_ctrls.wrQLenPdf::9                       0                       # What write queue length does an incoming req see
system.mem_ctrls.wrQLenPdf::10                      0                       # What write queue length does an incoming req see
system.mem_ctrls.wrQLenPdf::11                      0                       # What write queue length does an incoming req see
system.mem_ctrls.wrQLenPdf::12                      0                       # What write queue length does an incoming req see
system.mem_ctrls.wrQLenPdf::13                      0                       # What write queue length does an incoming req see
system.mem_ctrls.wrQLenPdf::14                      0                       # What write queue length does an incoming req see
system.mem_ctrls.wrQLenPdf::15                      1                       # What write queue length does an incoming req see
system.mem_ctrls.wrQLenPdf::16                      1                       # What write queue length does an incoming req see
system.mem_ctrls.wrQLenPdf::17                     24                       # What write queue length does an incoming req see
system.mem_ctrls.wrQLenPdf::18                     26                       # What write queue length does an incoming req see
system.mem_ctrls.wrQLenPdf::19                     26                       # What write queue length does an incoming req see
system.mem_ctrls.wrQLenPdf::20                     26                       # What write queue length does an incoming req see
system.mem_ctrls.wrQLenPdf::21                     26                       # What write queue length does an incoming req see
system.mem_ctrls.wrQLenPdf::22                     26                       # What write queue length does an incoming req see
system.mem_ctrls.wrQLenPdf::23                     26                       # What write queue length does an incoming req see
system.mem_ctrls.wrQLenPdf::24                     26                       # What write queue length does an incoming req see
system.mem_ctrls.wrQLenPdf::25                     27                       # What write queue length does an incoming req see
system.mem_ctrls.wrQLenPdf::26                     27                       # What write queue length does an incoming req see
system.mem_ctrls.wrQLenPdf::27                     27                       # What write queue length does an incoming req see
system.mem_ctrls.wrQLenPdf::28                     27                       # What write queue length does an incoming req see
system.mem_ctrls.wrQLenPdf::29                     27                       # What write queue length does an incoming req see
system.mem_ctrls.wrQLenPdf::30                     27                       # What write queue length does an incoming req see
system.mem_ctrls.wrQLenPdf::31                     27                       # What write queue length does an incoming req see
system.mem_ctrls.wrQLenPdf::32                     29                       # What write queue length does an incoming req see
system.mem_ctrls.wrQLenPdf::33                      0                       # What write queue length does an incoming req see
system.mem_ctrls.wrQLenPdf::34                      0                       # What write queue length does an incoming req see
system.mem_ctrls.wrQLenPdf::35                      0                       # What write queue length does an incoming req see
system.mem_ctrls.wrQLenPdf::36                      0                       # What write queue length does an incoming req see
system.mem_ctrls.wrQLenPdf::37                      0                       # What write queue length does an incoming req see
system.mem_ctrls.wrQLenPdf::38                      0                       # What write queue length does an incoming req see
system.mem_ctrls.wrQLenPdf::39                      0                       # What write queue length does an incoming req see
system.mem_ctrls.wrQLenPdf::40                      0                       # What write queue length does an incoming req see
system.mem_ctrls.wrQLenPdf::41                      0                       # What write queue length does an incoming req see
system.mem_ctrls.wrQLenPdf::42                      0                       # What write queue length does an incoming req see
system.mem_ctrls.wrQLenPdf::43                      0                       # What write queue length does an incoming req see
system.mem_ctrls.wrQLenPdf::44                      0                       # What write queue length does an incoming req see
system.mem_ctrls.wrQLenPdf::45                      0                       # What write queue length does an incoming req see
system.mem_ctrls.wrQLenPdf::46                      0                       # What write queue length does an incoming req see
system.mem_ctrls.wrQLenPdf::47                      0                       # What write queue length does an incoming req see
system.mem_ctrls.wrQLenPdf::48                      0                       # What write queue length does an incoming req see
system.mem_ctrls.wrQLenPdf::49                      0                       # What write queue length does an incoming req see
system.mem_ctrls.wrQLenPdf::50                      0                       # What write queue length does an incoming req see
system.mem_ctrls.wrQLenPdf::51                      0                       # What write queue length does an incoming req see
system.mem_ctrls.wrQLenPdf::52                      0                       # What write queue length does an incoming req see
system.mem_ctrls.wrQLenPdf::53                      0                       # What write queue length does an incoming req see
system.mem_ctrls.wrQLenPdf::54                      0                       # What write queue length does an incoming req see
system.mem_ctrls.wrQLenPdf::55                      0                       # What write queue length does an incoming req see
system.mem_ctrls.wrQLenPdf::56                      0                       # What write queue length does an incoming req see
system.mem_ctrls.wrQLenPdf::57                      0                       # What write queue length does an incoming req see
system.mem_ctrls.wrQLenPdf::58                      0                       # What write queue length does an incoming req see
system.mem_ctrls.wrQLenPdf::59                      0                       # What write queue length does an incoming req see
system.mem_ctrls.wrQLenPdf::60                      0                       # What write queue length does an incoming req see
system.mem_ctrls.wrQLenPdf::61                      0                       # What write queue length does an incoming req see
system.mem_ctrls.wrQLenPdf::62                      0                       # What write queue length does an incoming req see
system.mem_ctrls.wrQLenPdf::63                      0                       # What write queue length does an incoming req see
system.mem_ctrls.bytesPerActivate::samples        97325                       # Bytes accessed per row activation
system.mem_ctrls.bytesPerActivate::mean    121.804182                       # Bytes accessed per row activation
system.mem_ctrls.bytesPerActivate::gmean   105.210104                       # Bytes accessed per row activation
system.mem_ctrls.bytesPerActivate::stdev    72.570629                       # Bytes accessed per row activation
system.mem_ctrls.bytesPerActivate::0-127        45878     47.14%     47.14% # Bytes accessed per row activation
system.mem_ctrls.bytesPerActivate::128-255        42391     43.56%     90.70% # Bytes accessed per row activation
system.mem_ctrls.bytesPerActivate::256-383         7954      8.17%     98.87% # Bytes accessed per row activation
system.mem_ctrls.bytesPerActivate::384-511          995      1.02%     99.89% # Bytes accessed per row activation
system.mem_ctrls.bytesPerActivate::512-639           82      0.08%     99.97% # Bytes accessed per row activation
system.mem_ctrls.bytesPerActivate::640-767           10      0.01%     99.98% # Bytes accessed per row activation
system.mem_ctrls.bytesPerActivate::768-895            6      0.01%     99.99% # Bytes accessed per row activation
system.mem_ctrls.bytesPerActivate::896-1023            4      0.00%     99.99% # Bytes accessed per row activation
system.mem_ctrls.bytesPerActivate::1024-1151            5      0.01%    100.00% # Bytes accessed per row activation
system.mem_ctrls.bytesPerActivate::total        97325                       # Bytes accessed per row activation
system.mem_ctrls.rdPerTurnAround::samples           27                       # Reads before turning the bus around for writes
system.mem_ctrls.rdPerTurnAround::mean    6911.962963                       # Reads before turning the bus around for writes
system.mem_ctrls.rdPerTurnAround::gmean   6668.145565                       # Reads before turning the bus around for writes
system.mem_ctrls.rdPerTurnAround::stdev   1826.854305                       # Reads before turning the bus around for writes
system.mem_ctrls.rdPerTurnAround::3584-4095            2      7.41%      7.41% # Reads before turning the bus around for writes
system.mem_ctrls.rdPerTurnAround::4608-5119            3     11.11%     18.52% # Reads before turning the bus around for writes
system.mem_ctrls.rdPerTurnAround::5120-5631            1      3.70%     22.22% # Reads before turning the bus around for writes
system.mem_ctrls.rdPerTurnAround::5632-6143            4     14.81%     37.04% # Reads before turning the bus around for writes
system.mem_ctrls.rdPerTurnAround::6144-6655            3     11.11%     48.15% # Reads before turning the bus around for writes
system.mem_ctrls.rdPerTurnAround::6656-7167            2      7.41%     55.56% # Reads before turning the bus around for writes
system.mem_ctrls.rdPerTurnAround::7168-7679            3     11.11%     66.67% # Reads before turning the bus around for writes
system.mem_ctrls.rdPerTurnAround::7680-8191            2      7.41%     74.07% # Reads before turning the bus around for writes
system.mem_ctrls.rdPerTurnAround::8192-8703            1      3.70%     77.78% # Reads before turning the bus around for writes
system.mem_ctrls.rdPerTurnAround::8704-9215            2      7.41%     85.19% # Reads before turning the bus around for writes
system.mem_ctrls.rdPerTurnAround::9216-9727            3     11.11%     96.30% # Reads before turning the bus around for writes
system.mem_ctrls.rdPerTurnAround::10240-10751            1      3.70%    100.00% # Reads before turning the bus around for writes
system.mem_ctrls.rdPerTurnAround::total            27                       # Reads before turning the bus around for writes
system.mem_ctrls.wrPerTurnAround::samples           27                       # Writes before turning the bus around for reads
system.mem_ctrls.wrPerTurnAround::mean      16.074074                       # Writes before turning the bus around for reads
system.mem_ctrls.wrPerTurnAround::gmean     16.069950                       # Writes before turning the bus around for reads
system.mem_ctrls.wrPerTurnAround::stdev      0.384900                       # Writes before turning the bus around for reads
system.mem_ctrls.wrPerTurnAround::16               26     96.30%     96.30% # Writes before turning the bus around for reads
system.mem_ctrls.wrPerTurnAround::18                1      3.70%    100.00% # Writes before turning the bus around for reads
system.mem_ctrls.wrPerTurnAround::total            27                       # Writes before turning the bus around for reads
system.mem_ctrls.totQLat                   4524176750                       # Total ticks spent queuing
system.mem_ctrls.totMemAccLat              7989101750                       # Total ticks spent from burst creation until serviced by the DRAM
system.mem_ctrls.totBusLat                  923980000                       # Total ticks spent in databus transfers
system.mem_ctrls.avgQLat                     24482.01                       # Average queueing delay per DRAM burst
system.mem_ctrls.avgBusLat                    5000.00                       # Average bus latency per DRAM burst
system.mem_ctrls.avgMemAccLat                43232.01                       # Average memory access latency per DRAM burst
system.mem_ctrls.avgRdBW                       774.66                       # Average DRAM read bandwidth in MiByte/s
system.mem_ctrls.avgWrBW                         1.82                       # Average achieved write bandwidth in MiByte/s
system.mem_ctrls.avgRdBWSys                    774.89                       # Average system read bandwidth in MiByte/s
system.mem_ctrls.avgWrBWSys                      1.79                       # Average system write bandwidth in MiByte/s
system.mem_ctrls.peakBW                      12800.00                       # Theoretical peak bandwidth in MiByte/s
system.mem_ctrls.busUtil                         6.07                       # Data bus utilization in percentage
system.mem_ctrls.busUtilRead                     6.05                       # Data bus utilization in percentage for reads
system.mem_ctrls.busUtilWrite                    0.01                       # Data bus utilization in percentage for writes
system.mem_ctrls.avgRdQLen                       1.30                       # Average read queue length when enqueuing
system.mem_ctrls.avgWrQLen                      26.03                       # Average write queue length when enqueuing
system.mem_ctrls.readRowHits                    87531                       # Number of row buffer hits during reads
system.mem_ctrls.writeRowHits                     371                       # Number of row buffer hits during writes
system.mem_ctrls.readRowHitRate                 47.37                       # Row buffer hit rate for reads
system.mem_ctrls.writeRowHitRate                87.09                       # Row buffer hit rate for writes
system.mem_ctrls.avgGap                      82402.92                       # Average gap between requests
system.mem_ctrls.pageHitRate                    47.46                       # Row buffer hit rate, read and write combined
system.mem_ctrls_0.actEnergy                347311020                       # Energy for activate commands per rank (pJ)
system.mem_ctrls_0.preEnergy                184592595                       # Energy for precharge commands per rank (pJ)
system.mem_ctrls_0.readEnergy               655987500                       # Energy for read commands per rank (pJ)
system.mem_ctrls_0.writeEnergy                1769580                       # Energy for write commands per rank (pJ)
system.mem_ctrls_0.refreshEnergy         1205309040.000000                       # Energy for refresh commands per rank (pJ)
system.mem_ctrls_0.actBackEnergy           1583719920                       # Energy for active background per rank (pJ)
system.mem_ctrls_0.preBackEnergy             24208320                       # Energy for precharge background per rank (pJ)
system.mem_ctrls_0.actPowerDownEnergy      5135723370                       # Energy for active power-down per rank (pJ)
system.mem_ctrls_0.prePowerDownEnergy       179973120                       # Energy for precharge power-down per rank (pJ)
system.mem_ctrls_0.selfRefreshEnergy                0                       # Energy for self refresh per rank (pJ)
system.mem_ctrls_0.totalEnergy             9318594465                       # Total energy per rank (pJ)
system.mem_ctrls_0.averagePower            610.361199                       # Core power per rank (mW)
system.mem_ctrls_0.totalIdleTime          11730595000                       # Total Idle time Per DRAM Rank
system.mem_ctrls_0.memoryStateTime::IDLE      9642000                       # Time in different power states
system.mem_ctrls_0.memoryStateTime::REF     509860000                       # Time in different power states
system.mem_ctrls_0.memoryStateTime::SREF            0                       # Time in different power states
system.mem_ctrls_0.memoryStateTime::PRE_PDN    469064250                       # Time in different power states
system.mem_ctrls_0.memoryStateTime::ACT    3016842875                       # Time in different power states
system.mem_ctrls_0.memoryStateTime::ACT_PDN  11261935000                       # Time in different power states
system.mem_ctrls_1.actEnergy                347610900                       # Energy for activate commands per rank (pJ)
system.mem_ctrls_1.preEnergy                184755780                       # Energy for precharge commands per rank (pJ)
system.mem_ctrls_1.readEnergy               663448800                       # Energy for read commands per rank (pJ)
system.mem_ctrls_1.writeEnergy                 495900                       # Energy for write commands per rank (pJ)
system.mem_ctrls_1.refreshEnergy         1205309040.000000                       # Energy for refresh commands per rank (pJ)
system.mem_ctrls_1.actBackEnergy           1592126280                       # Energy for active background per rank (pJ)
system.mem_ctrls_1.preBackEnergy             24797760                       # Energy for precharge background per rank (pJ)
system.mem_ctrls_1.actPowerDownEnergy      5136918660                       # Energy for active power-down per rank (pJ)
system.mem_ctrls_1.prePowerDownEnergy       171298080                       # Energy for precharge power-down per rank (pJ)
system.mem_ctrls_1.selfRefreshEnergy                0                       # Energy for self refresh per rank (pJ)
system.mem_ctrls_1.totalEnergy             9326761200                       # Total energy per rank (pJ)
system.mem_ctrls_1.averagePower            610.896114                       # Core power per rank (mW)
system.mem_ctrls_1.totalIdleTime          11711829625                       # Total Idle time Per DRAM Rank
system.mem_ctrls_1.memoryStateTime::IDLE     10044000                       # Time in different power states
system.mem_ctrls_1.memoryStateTime::REF     509860000                       # Time in different power states
system.mem_ctrls_1.memoryStateTime::SREF            0                       # Time in different power states
system.mem_ctrls_1.memoryStateTime::PRE_PDN    446334500                       # Time in different power states
system.mem_ctrls_1.memoryStateTime::ACT    3035610500                       # Time in different power states
system.mem_ctrls_1.memoryStateTime::ACT_PDN  11265495125                       # Time in different power states
system.pwrStateResidencyTicks::UNDEFINED  15267344125                       # Cumulative time (in ticks) in various power states
system.cpu0.branchPred.lookups                1775097                       # Number of BP lookups
system.cpu0.branchPred.condPredicted          1775097                       # Number of conditional branches predicted
system.cpu0.branchPred.condIncorrect            73953                       # Number of conditional branches incorrect
system.cpu0.branchPred.BTBLookups             1453284                       # Number of BTB lookups
system.cpu0.branchPred.BTBHits                      0                       # Number of BTB hits
system.cpu0.branchPred.BTBCorrect                   0                       # Number of correct BTB predictions (this stat may not work properly.
system.cpu0.branchPred.BTBHitPct             0.000000                       # BTB Hit Percentage
system.cpu0.branchPred.usedRAS                  47380                       # Number of times the RAS was used to get a target.
system.cpu0.branchPred.RASInCorrect              6789                       # Number of incorrect RAS predictions.
system.cpu0.branchPred.indirectLookups        1453284                       # Number of indirect predictor lookups.
system.cpu0.branchPred.indirectHits            753255                       # Number of indirect target hits.
system.cpu0.branchPred.indirectMisses          700029                       # Number of indirect misses.
system.cpu0.branchPredindirectMispredicted        25885                       # Number of mispredicted indirect branches.
system.cpu_voltage_domain.voltage                   1                       # Voltage in Volts
system.cpu_clk_domain.clock                       500                       # Clock period in ticks
system.cpu0.dtb.walker.pwrStateResidencyTicks::UNDEFINED  15267344125                       # Cumulative time (in ticks) in various power states
system.cpu0.dtb.rdAccesses                     845099                       # TLB accesses on read requests
system.cpu0.dtb.wrAccesses                      57593                       # TLB accesses on write requests
system.cpu0.dtb.rdMisses                       177344                       # TLB misses on read requests
system.cpu0.dtb.wrMisses                         1018                       # TLB misses on write requests
system.cpu0.apic_clk_domain.clock                8000                       # Clock period in ticks
system.cpu0.interrupts.pwrStateResidencyTicks::UNDEFINED  15267344125                       # Cumulative time (in ticks) in various power states
system.cpu0.itb.walker.pwrStateResidencyTicks::UNDEFINED  15267344125                       # Cumulative time (in ticks) in various power states
system.cpu0.itb.rdAccesses                          0                       # TLB accesses on read requests
system.cpu0.itb.wrAccesses                    1472162                       # TLB accesses on write requests
system.cpu0.itb.rdMisses                            0                       # TLB misses on read requests
system.cpu0.itb.wrMisses                         4793                       # TLB misses on write requests
system.cpu0.workload.numSyscalls                    0                       # Number of system calls
system.cpu0.pwrStateResidencyTicks::ON    15267344125                       # Cumulative time (in ticks) in various power states
system.cpu0.numCycles                        30534689                       # number of cpu cycles simulated
system.cpu0.numWorkItemsStarted                     0                       # number of work items this cpu started
system.cpu0.numWorkItemsCompleted                   0                       # number of work items this cpu completed
system.cpu0.fetch.icacheStallCycles           1505690                       # Number of cycles fetch is stalled on an Icache miss
system.cpu0.fetch.Insts                       5157884                       # Number of instructions fetch has processed
system.cpu0.fetch.Branches                    1775097                       # Number of branches that fetch encountered
system.cpu0.fetch.predictedBranches            800635                       # Number of branches that fetch has predicted taken
system.cpu0.fetch.Cycles                     28863164                       # Number of cycles fetch has run and was not squashing or blocked
system.cpu0.fetch.SquashCycles                 150844                       # Number of cycles fetch has spent squashing
system.cpu0.fetch.TlbCycles                      1980                       # Number of cycles fetch has spent waiting for tlb
system.cpu0.fetch.MiscStallCycles                1055                       # Number of cycles fetch has spent waiting on interrupts, or bad addresses, or out of MSHRs
system.cpu0.fetch.PendingTrapStallCycles        42216                       # Number of stall cycles due to pending traps
system.cpu0.fetch.CacheLines                  1467369                       # Number of cache lines fetched
system.cpu0.fetch.IcacheSquashes                 9806                       # Number of outstanding Icache misses that were squashed
system.cpu0.fetch.ItlbSquashes                      8                       # Number of outstanding ITLB misses that were squashed
system.cpu0.fetch.rateDist::samples          30489527                       # Number of instructions fetched each cycle (Total)
system.cpu0.fetch.rateDist::mean             0.340161                       # Number of instructions fetched each cycle (Total)
system.cpu0.fetch.rateDist::stdev            1.465322                       # Number of instructions fetched each cycle (Total)
system.cpu0.fetch.rateDist::underflows              0      0.00%      0.00% # Number of instructions fetched each cycle (Total)
system.cpu0.fetch.rateDist::0                28478873     93.41%     93.41% # Number of instructions fetched each cycle (Total)
system.cpu0.fetch.rateDist::1                   29120      0.10%     93.50% # Number of instructions fetched each cycle (Total)
system.cpu0.fetch.rateDist::2                  730849      2.40%     95.90% # Number of instructions fetched each cycle (Total)
system.cpu0.fetch.rateDist::3                   28744      0.09%     95.99% # Number of instructions fetched each cycle (Total)
system.cpu0.fetch.rateDist::4                  143627      0.47%     96.46% # Number of instructions fetched each cycle (Total)
system.cpu0.fetch.rateDist::5                   64038      0.21%     96.67% # Number of instructions fetched each cycle (Total)
system.cpu0.fetch.rateDist::6                   94672      0.31%     96.98% # Number of instructions fetched each cycle (Total)
system.cpu0.fetch.rateDist::7                   25267      0.08%     97.07% # Number of instructions fetched each cycle (Total)
system.cpu0.fetch.rateDist::8                  894337      2.93%    100.00% # Number of instructions fetched each cycle (Total)
system.cpu0.fetch.rateDist::overflows               0      0.00%    100.00% # Number of instructions fetched each cycle (Total)
system.cpu0.fetch.rateDist::min_value               0                       # Number of instructions fetched each cycle (Total)
system.cpu0.fetch.rateDist::max_value               8                       # Number of instructions fetched each cycle (Total)
system.cpu0.fetch.rateDist::total            30489527                       # Number of instructions fetched each cycle (Total)
system.cpu0.fetch.branchRate                 0.058134                       # Number of branch fetches per cycle
system.cpu0.fetch.rate                       0.168919                       # Number of inst fetches per cycle
system.cpu0.decode.IdleCycles                  751104                       # Number of cycles decode is idle
system.cpu0.decode.BlockedCycles             28337351                       # Number of cycles decode is blocked
system.cpu0.decode.RunCycles                   974156                       # Number of cycles decode is running
system.cpu0.decode.UnblockCycles               351494                       # Number of cycles decode is unblocking
system.cpu0.decode.SquashCycles                 75422                       # Number of cycles decode is squashing
system.cpu0.decode.DecodedInsts               8607236                       # Number of instructions handled by decode
system.cpu0.rename.SquashCycles                 75422                       # Number of cycles rename is squashing
system.cpu0.rename.IdleCycles                  861852                       # Number of cycles rename is idle
system.cpu0.rename.BlockCycles               26988459                       # Number of cycles rename is blocking
system.cpu0.rename.serializeStallCycles         18369                       # count of cycles rename stalled for serializing inst
system.cpu0.rename.RunCycles                  1132546                       # Number of cycles rename is running
system.cpu0.rename.UnblockCycles              1412879                       # Number of cycles rename is unblocking
system.cpu0.rename.RenamedInsts               8265360                       # Number of instructions processed by rename
system.cpu0.rename.ROBFullEvents                57882                       # Number of times rename has blocked due to ROB full
system.cpu0.rename.IQFullEvents               1162636                       # Number of times rename has blocked due to IQ full
system.cpu0.rename.LQFullEvents                195833                       # Number of times rename has blocked due to LQ full
system.cpu0.rename.SQFullEvents                   641                       # Number of times rename has blocked due to SQ full
system.cpu0.rename.RenamedOperands            9854959                       # Number of destination operands rename has renamed
system.cpu0.rename.RenameLookups             22992312                       # Number of register rename lookups that rename has made
system.cpu0.rename.int_rename_lookups        10829233                       # Number of integer rename lookups
system.cpu0.rename.fp_rename_lookups            42793                       # Number of floating rename lookups
system.cpu0.rename.CommittedMaps              3586063                       # Number of HB maps that are committed
system.cpu0.rename.UndoneMaps                 6268893                       # Number of HB maps that are undone due to squashing
system.cpu0.rename.serializingInsts               247                       # count of serializing insts renamed
system.cpu0.rename.tempSerializingInsts           336                       # count of temporary serializing insts renamed
system.cpu0.rename.skidInsts                  2205718                       # count of insts added to the skid buffer
system.cpu0.memDep0.insertedLoads             1479546                       # Number of loads inserted to the mem dependence unit.
system.cpu0.memDep0.insertedStores              85720                       # Number of stores inserted to the mem dependence unit.
system.cpu0.memDep0.conflictingLoads             5711                       # Number of conflicting loads.
system.cpu0.memDep0.conflictingStores            4922                       # Number of conflicting stores.
system.cpu0.iq.iqInstsAdded                   7833903                       # Number of instructions added to the IQ (excludes non-spec)
system.cpu0.iq.iqNonSpecInstsAdded               4885                       # Number of non-speculative instructions added to the IQ
system.cpu0.iq.iqInstsIssued                  5634841                       # Number of instructions issued
system.cpu0.iq.iqSquashedInstsIssued             7050                       # Number of squashed instructions issued
system.cpu0.iq.iqSquashedInstsExamined        4851630                       # Number of squashed instructions iterated over during squash; mainly for profiling
system.cpu0.iq.iqSquashedOperandsExamined     10167007                       # Number of squashed operands that are examined and possibly removed from graph
system.cpu0.iq.iqSquashedNonSpecRemoved          4885                       # Number of squashed non-spec instructions that were removed
system.cpu0.iq.issued_per_cycle::samples     30489527                       # Number of insts issued each cycle
system.cpu0.iq.issued_per_cycle::mean        0.184812                       # Number of insts issued each cycle
system.cpu0.iq.issued_per_cycle::stdev       0.781856                       # Number of insts issued each cycle
system.cpu0.iq.issued_per_cycle::underflows            0      0.00%      0.00% # Number of insts issued each cycle
system.cpu0.iq.issued_per_cycle::0           28171782     92.40%     92.40% # Number of insts issued each cycle
system.cpu0.iq.issued_per_cycle::1             927221      3.04%     95.44% # Number of insts issued each cycle
system.cpu0.iq.issued_per_cycle::2             488268      1.60%     97.04% # Number of insts issued each cycle
system.cpu0.iq.issued_per_cycle::3             326182      1.07%     98.11% # Number of insts issued each cycle
system.cpu0.iq.issued_per_cycle::4             337584      1.11%     99.22% # Number of insts issued each cycle
system.cpu0.iq.issued_per_cycle::5             103193      0.34%     99.56% # Number of insts issued each cycle
system.cpu0.iq.issued_per_cycle::6              82783      0.27%     99.83% # Number of insts issued each cycle
system.cpu0.iq.issued_per_cycle::7              30573      0.10%     99.93% # Number of insts issued each cycle
system.cpu0.iq.issued_per_cycle::8              21941      0.07%    100.00% # Number of insts issued each cycle
system.cpu0.iq.issued_per_cycle::overflows            0      0.00%    100.00% # Number of insts issued each cycle
system.cpu0.iq.issued_per_cycle::min_value            0                       # Number of insts issued each cycle
system.cpu0.iq.issued_per_cycle::max_value            8                       # Number of insts issued each cycle
system.cpu0.iq.issued_per_cycle::total       30489527                       # Number of insts issued each cycle
system.cpu0.iq.fu_full::No_OpClass                  0      0.00%      0.00% # attempts to use FU when none available
system.cpu0.iq.fu_full::IntAlu                  12399     69.13%     69.13% # attempts to use FU when none available
system.cpu0.iq.fu_full::IntMult                     0      0.00%     69.13% # attempts to use FU when none available
system.cpu0.iq.fu_full::IntDiv                      0      0.00%     69.13% # attempts to use FU when none available
system.cpu0.iq.fu_full::FloatAdd                 1254      6.99%     76.12% # attempts to use FU when none available
system.cpu0.iq.fu_full::FloatCmp                    0      0.00%     76.12% # attempts to use FU when none available
system.cpu0.iq.fu_full::FloatCvt                    0      0.00%     76.12% # attempts to use FU when none available
system.cpu0.iq.fu_full::FloatMult                   0      0.00%     76.12% # attempts to use FU when none available
system.cpu0.iq.fu_full::FloatMultAcc                0      0.00%     76.12% # attempts to use FU when none available
system.cpu0.iq.fu_full::FloatDiv                    0      0.00%     76.12% # attempts to use FU when none available
system.cpu0.iq.fu_full::FloatMisc                   0      0.00%     76.12% # attempts to use FU when none available
system.cpu0.iq.fu_full::FloatSqrt                   0      0.00%     76.12% # attempts to use FU when none available
system.cpu0.iq.fu_full::SimdAdd                     0      0.00%     76.12% # attempts to use FU when none available
system.cpu0.iq.fu_full::SimdAddAcc                  0      0.00%     76.12% # attempts to use FU when none available
system.cpu0.iq.fu_full::SimdAlu                     0      0.00%     76.12% # attempts to use FU when none available
system.cpu0.iq.fu_full::SimdCmp                     0      0.00%     76.12% # attempts to use FU when none available
system.cpu0.iq.fu_full::SimdCvt                     0      0.00%     76.12% # attempts to use FU when none available
system.cpu0.iq.fu_full::SimdMisc                    0      0.00%     76.12% # attempts to use FU when none available
system.cpu0.iq.fu_full::SimdMult                    0      0.00%     76.12% # attempts to use FU when none available
system.cpu0.iq.fu_full::SimdMultAcc                 0      0.00%     76.12% # attempts to use FU when none available
system.cpu0.iq.fu_full::SimdShift                   0      0.00%     76.12% # attempts to use FU when none available
system.cpu0.iq.fu_full::SimdShiftAcc                0      0.00%     76.12% # attempts to use FU when none available
system.cpu0.iq.fu_full::SimdSqrt                    0      0.00%     76.12% # attempts to use FU when none available
system.cpu0.iq.fu_full::SimdFloatAdd                0      0.00%     76.12% # attempts to use FU when none available
system.cpu0.iq.fu_full::SimdFloatAlu                0      0.00%     76.12% # attempts to use FU when none available
system.cpu0.iq.fu_full::SimdFloatCmp                0      0.00%     76.12% # attempts to use FU when none available
system.cpu0.iq.fu_full::SimdFloatCvt                0      0.00%     76.12% # attempts to use FU when none available
system.cpu0.iq.fu_full::SimdFloatDiv                0      0.00%     76.12% # attempts to use FU when none available
system.cpu0.iq.fu_full::SimdFloatMisc               0      0.00%     76.12% # attempts to use FU when none available
system.cpu0.iq.fu_full::SimdFloatMult               0      0.00%     76.12% # attempts to use FU when none available
system.cpu0.iq.fu_full::SimdFloatMultAcc            0      0.00%     76.12% # attempts to use FU when none available
system.cpu0.iq.fu_full::SimdFloatSqrt               0      0.00%     76.12% # attempts to use FU when none available
system.cpu0.iq.fu_full::MemRead                  3745     20.88%     97.00% # attempts to use FU when none available
system.cpu0.iq.fu_full::MemWrite                  312      1.74%     98.73% # attempts to use FU when none available
system.cpu0.iq.fu_full::FloatMemRead              190      1.06%     99.79% # attempts to use FU when none available
system.cpu0.iq.fu_full::FloatMemWrite              37      0.21%    100.00% # attempts to use FU when none available
system.cpu0.iq.fu_full::IprAccess                   0      0.00%    100.00% # attempts to use FU when none available
system.cpu0.iq.fu_full::InstPrefetch                0      0.00%    100.00% # attempts to use FU when none available
system.cpu0.iq.FU_type_0::No_OpClass            19424      0.34%      0.34% # Type of FU issued
system.cpu0.iq.FU_type_0::IntAlu              4638937     82.33%     82.67% # Type of FU issued
system.cpu0.iq.FU_type_0::IntMult                1379      0.02%     82.70% # Type of FU issued
system.cpu0.iq.FU_type_0::IntDiv                11012      0.20%     82.89% # Type of FU issued
system.cpu0.iq.FU_type_0::FloatAdd              15631      0.28%     83.17% # Type of FU issued
system.cpu0.iq.FU_type_0::FloatCmp                  0      0.00%     83.17% # Type of FU issued
system.cpu0.iq.FU_type_0::FloatCvt                  0      0.00%     83.17% # Type of FU issued
system.cpu0.iq.FU_type_0::FloatMult                 0      0.00%     83.17% # Type of FU issued
system.cpu0.iq.FU_type_0::FloatMultAcc              0      0.00%     83.17% # Type of FU issued
system.cpu0.iq.FU_type_0::FloatDiv                  0      0.00%     83.17% # Type of FU issued
system.cpu0.iq.FU_type_0::FloatMisc                 0      0.00%     83.17% # Type of FU issued
system.cpu0.iq.FU_type_0::FloatSqrt                 0      0.00%     83.17% # Type of FU issued
system.cpu0.iq.FU_type_0::SimdAdd                   0      0.00%     83.17% # Type of FU issued
system.cpu0.iq.FU_type_0::SimdAddAcc                0      0.00%     83.17% # Type of FU issued
system.cpu0.iq.FU_type_0::SimdAlu                   0      0.00%     83.17% # Type of FU issued
system.cpu0.iq.FU_type_0::SimdCmp                   0      0.00%     83.17% # Type of FU issued
system.cpu0.iq.FU_type_0::SimdCvt                   0      0.00%     83.17% # Type of FU issued
system.cpu0.iq.FU_type_0::SimdMisc                  0      0.00%     83.17% # Type of FU issued
system.cpu0.iq.FU_type_0::SimdMult                  0      0.00%     83.17% # Type of FU issued
system.cpu0.iq.FU_type_0::SimdMultAcc               0      0.00%     83.17% # Type of FU issued
system.cpu0.iq.FU_type_0::SimdShift                 0      0.00%     83.17% # Type of FU issued
system.cpu0.iq.FU_type_0::SimdShiftAcc              0      0.00%     83.17% # Type of FU issued
system.cpu0.iq.FU_type_0::SimdSqrt                  0      0.00%     83.17% # Type of FU issued
system.cpu0.iq.FU_type_0::SimdFloatAdd              0      0.00%     83.17% # Type of FU issued
system.cpu0.iq.FU_type_0::SimdFloatAlu              0      0.00%     83.17% # Type of FU issued
system.cpu0.iq.FU_type_0::SimdFloatCmp              0      0.00%     83.17% # Type of FU issued
system.cpu0.iq.FU_type_0::SimdFloatCvt              0      0.00%     83.17% # Type of FU issued
system.cpu0.iq.FU_type_0::SimdFloatDiv              0      0.00%     83.17% # Type of FU issued
system.cpu0.iq.FU_type_0::SimdFloatMisc             0      0.00%     83.17% # Type of FU issued
system.cpu0.iq.FU_type_0::SimdFloatMult             0      0.00%     83.17% # Type of FU issued
system.cpu0.iq.FU_type_0::SimdFloatMultAcc            0      0.00%     83.17% # Type of FU issued
system.cpu0.iq.FU_type_0::SimdFloatSqrt             0      0.00%     83.17% # Type of FU issued
system.cpu0.iq.FU_type_0::MemRead              882878     15.67%     98.84% # Type of FU issued
system.cpu0.iq.FU_type_0::MemWrite              62217      1.10%     99.94% # Type of FU issued
system.cpu0.iq.FU_type_0::FloatMemRead           3270      0.06%    100.00% # Type of FU issued
system.cpu0.iq.FU_type_0::FloatMemWrite            93      0.00%    100.00% # Type of FU issued
system.cpu0.iq.FU_type_0::IprAccess                 0      0.00%    100.00% # Type of FU issued
system.cpu0.iq.FU_type_0::InstPrefetch              0      0.00%    100.00% # Type of FU issued
system.cpu0.iq.FU_type_0::total               5634841                       # Type of FU issued
system.cpu0.iq.rate                          0.184539                       # Inst issue rate
system.cpu0.iq.fu_busy_cnt                      17937                       # FU busy when requested
system.cpu0.iq.fu_busy_rate                  0.003183                       # FU busy rate (busy events/executed inst)
system.cpu0.iq.int_inst_queue_reads          41744430                       # Number of integer instruction queue reads
system.cpu0.iq.int_inst_queue_writes         12653677                       # Number of integer instruction queue writes
system.cpu0.iq.int_inst_queue_wakeup_accesses      5398496                       # Number of integer instruction queue wakeup accesses
system.cpu0.iq.fp_inst_queue_reads              39768                       # Number of floating instruction queue reads
system.cpu0.iq.fp_inst_queue_writes             36744                       # Number of floating instruction queue writes
system.cpu0.iq.fp_inst_queue_wakeup_accesses        17144                       # Number of floating instruction queue wakeup accesses
system.cpu0.iq.vec_inst_queue_reads                 0                       # Number of vector instruction queue reads
system.cpu0.iq.vec_inst_queue_writes                0                       # Number of vector instruction queue writes
system.cpu0.iq.vec_inst_queue_wakeup_accesses            0                       # Number of vector instruction queue wakeup accesses
system.cpu0.iq.int_alu_accesses               5612874                       # Number of integer alu accesses
system.cpu0.iq.fp_alu_accesses                  20480                       # Number of floating point alu accesses
system.cpu0.iq.vec_alu_accesses                     0                       # Number of vector alu accesses
system.cpu0.iew.lsq.thread0.forwLoads            4739                       # Number of loads that had data forwarded from stores
system.cpu0.iew.lsq.thread0.invAddrLoads            0                       # Number of loads ignored due to an invalid address
system.cpu0.iew.lsq.thread0.squashedLoads       920974                       # Number of loads squashed
system.cpu0.iew.lsq.thread0.ignoredResponses          150                       # Number of memory responses ignored because the instruction is squashed
system.cpu0.iew.lsq.thread0.memOrderViolation            3                       # Number of memory ordering violations
system.cpu0.iew.lsq.thread0.squashedStores        53843                       # Number of stores squashed
system.cpu0.iew.lsq.thread0.invAddrSwpfs            0                       # Number of software prefetches ignored due to an invalid address
system.cpu0.iew.lsq.thread0.blockedLoads            0                       # Number of blocked loads due to partial load-store forwarding
system.cpu0.iew.lsq.thread0.rescheduledLoads           40                       # Number of loads that were rescheduled
system.cpu0.iew.lsq.thread0.cacheBlocked         1821                       # Number of times an access to memory failed due to the cache being blocked
system.cpu0.iew.iewIdleCycles                       0                       # Number of cycles IEW is idle
system.cpu0.iew.iewSquashCycles                 75422                       # Number of cycles IEW is squashing
system.cpu0.iew.iewBlockCycles               25122090                       # Number of cycles IEW is blocking
system.cpu0.iew.iewUnblockCycles               280386                       # Number of cycles IEW is unblocking
system.cpu0.iew.iewDispatchedInsts            7838788                       # Number of instructions dispatched to IQ
system.cpu0.iew.iewDispSquashedInsts             4985                       # Number of squashed instructions skipped by dispatch
system.cpu0.iew.iewDispLoadInsts              1479546                       # Number of dispatched load instructions
system.cpu0.iew.iewDispStoreInsts               85720                       # Number of dispatched store instructions
system.cpu0.iew.iewDispNonSpecInsts              1784                       # Number of dispatched non-speculative instructions
system.cpu0.iew.iewIQFullEvents                 22043                       # Number of times the IQ has become full, causing a stall
system.cpu0.iew.iewLSQFullEvents                51785                       # Number of times the LSQ has become full, causing a stall
system.cpu0.iew.memOrderViolationEvents             3                       # Number of memory order violations
system.cpu0.iew.predictedTakenIncorrect         38168                       # Number of branches that were predicted taken incorrectly
system.cpu0.iew.predictedNotTakenIncorrect        45595                       # Number of branches that were predicted not taken incorrectly
system.cpu0.iew.branchMispredicts               83763                       # Number of branch mispredicts detected at execute
system.cpu0.iew.iewExecutedInsts              5529430                       # Number of executed instructions
system.cpu0.iew.iewExecLoadInsts               844793                       # Number of load instructions executed
system.cpu0.iew.iewExecSquashedInsts           105413                       # Number of squashed instructions skipped in execute
system.cpu0.iew.exec_swp                            0                       # number of swp insts executed
system.cpu0.iew.exec_nop                            0                       # number of nop insts executed
system.cpu0.iew.exec_refs                      902359                       # number of memory reference insts executed
system.cpu0.iew.exec_branches                  669639                       # Number of branches executed
system.cpu0.iew.exec_stores                     57566                       # Number of stores executed
system.cpu0.iew.exec_rate                    0.181087                       # Inst execution rate
system.cpu0.iew.wb_sent                       5434159                       # cumulative count of insts sent to commit
system.cpu0.iew.wb_count                      5415640                       # cumulative count of insts written-back
system.cpu0.iew.wb_producers                  3994133                       # num instructions producing a value
system.cpu0.iew.wb_consumers                  6338218                       # num instructions consuming a value
system.cpu0.iew.wb_rate                      0.177360                       # insts written-back per cycle
system.cpu0.iew.wb_fanout                    0.630167                       # average fanout of values written-back
system.cpu0.commit.commitSquashedInsts        4852198                       # The number of squashed insts skipped by commit
system.cpu0.commit.branchMispredicts            75420                       # The number of times a branch was mispredicted
system.cpu0.commit.committed_per_cycle::samples     29804669                       # Number of insts commited each cycle
system.cpu0.commit.committed_per_cycle::mean     0.100224                       # Number of insts commited each cycle
system.cpu0.commit.committed_per_cycle::stdev     0.586560                       # Number of insts commited each cycle
system.cpu0.commit.committed_per_cycle::underflows            0      0.00%      0.00% # Number of insts commited each cycle
system.cpu0.commit.committed_per_cycle::0     28519100     95.69%     95.69% # Number of insts commited each cycle
system.cpu0.commit.committed_per_cycle::1       588415      1.97%     97.66% # Number of insts commited each cycle
system.cpu0.commit.committed_per_cycle::2       143431      0.48%     98.14% # Number of insts commited each cycle
system.cpu0.commit.committed_per_cycle::3       384647      1.29%     99.43% # Number of insts commited each cycle
system.cpu0.commit.committed_per_cycle::4        65916      0.22%     99.65% # Number of insts commited each cycle
system.cpu0.commit.committed_per_cycle::5        37155      0.12%     99.78% # Number of insts commited each cycle
system.cpu0.commit.committed_per_cycle::6         7519      0.03%     99.80% # Number of insts commited each cycle
system.cpu0.commit.committed_per_cycle::7         4501      0.02%     99.82% # Number of insts commited each cycle
system.cpu0.commit.committed_per_cycle::8        53985      0.18%    100.00% # Number of insts commited each cycle
system.cpu0.commit.committed_per_cycle::overflows            0      0.00%    100.00% # Number of insts commited each cycle
system.cpu0.commit.committed_per_cycle::min_value            0                       # Number of insts commited each cycle
system.cpu0.commit.committed_per_cycle::max_value            8                       # Number of insts commited each cycle
system.cpu0.commit.committed_per_cycle::total     29804669                       # Number of insts commited each cycle
system.cpu0.commit.committedInsts             1495165                       # Number of instructions committed
system.cpu0.commit.committedOps               2987158                       # Number of ops (including micro ops) committed
system.cpu0.commit.swp_count                        0                       # Number of s/w prefetches committed
system.cpu0.commit.refs                        590449                       # Number of memory references committed
system.cpu0.commit.loads                       558572                       # Number of loads committed
system.cpu0.commit.membars                          0                       # Number of memory barriers committed
system.cpu0.commit.branches                    535137                       # Number of branches committed
system.cpu0.commit.vec_insts                        0                       # Number of committed Vector instructions.
system.cpu0.commit.fp_insts                     12978                       # Number of committed floating point instructions.
system.cpu0.commit.int_insts                  2974195                       # Number of committed integer instructions.
system.cpu0.commit.function_calls                5625                       # Number of function calls committed.
system.cpu0.commit.op_class_0::No_OpClass         3837      0.13%      0.13% # Class of committed instruction
system.cpu0.commit.op_class_0::IntAlu         2372322     79.42%     79.55% # Class of committed instruction
system.cpu0.commit.op_class_0::IntMult            225      0.01%     79.55% # Class of committed instruction
system.cpu0.commit.op_class_0::IntDiv            9273      0.31%     79.86% # Class of committed instruction
system.cpu0.commit.op_class_0::FloatAdd         11052      0.37%     80.23% # Class of committed instruction
system.cpu0.commit.op_class_0::FloatCmp             0      0.00%     80.23% # Class of committed instruction
system.cpu0.commit.op_class_0::FloatCvt             0      0.00%     80.23% # Class of committed instruction
system.cpu0.commit.op_class_0::FloatMult            0      0.00%     80.23% # Class of committed instruction
system.cpu0.commit.op_class_0::FloatMultAcc            0      0.00%     80.23% # Class of committed instruction
system.cpu0.commit.op_class_0::FloatDiv             0      0.00%     80.23% # Class of committed instruction
system.cpu0.commit.op_class_0::FloatMisc            0      0.00%     80.23% # Class of committed instruction
system.cpu0.commit.op_class_0::FloatSqrt            0      0.00%     80.23% # Class of committed instruction
system.cpu0.commit.op_class_0::SimdAdd              0      0.00%     80.23% # Class of committed instruction
system.cpu0.commit.op_class_0::SimdAddAcc            0      0.00%     80.23% # Class of committed instruction
system.cpu0.commit.op_class_0::SimdAlu              0      0.00%     80.23% # Class of committed instruction
system.cpu0.commit.op_class_0::SimdCmp              0      0.00%     80.23% # Class of committed instruction
system.cpu0.commit.op_class_0::SimdCvt              0      0.00%     80.23% # Class of committed instruction
system.cpu0.commit.op_class_0::SimdMisc             0      0.00%     80.23% # Class of committed instruction
system.cpu0.commit.op_class_0::SimdMult             0      0.00%     80.23% # Class of committed instruction
system.cpu0.commit.op_class_0::SimdMultAcc            0      0.00%     80.23% # Class of committed instruction
system.cpu0.commit.op_class_0::SimdShift            0      0.00%     80.23% # Class of committed instruction
system.cpu0.commit.op_class_0::SimdShiftAcc            0      0.00%     80.23% # Class of committed instruction
system.cpu0.commit.op_class_0::SimdSqrt             0      0.00%     80.23% # Class of committed instruction
system.cpu0.commit.op_class_0::SimdFloatAdd            0      0.00%     80.23% # Class of committed instruction
system.cpu0.commit.op_class_0::SimdFloatAlu            0      0.00%     80.23% # Class of committed instruction
system.cpu0.commit.op_class_0::SimdFloatCmp            0      0.00%     80.23% # Class of committed instruction
system.cpu0.commit.op_class_0::SimdFloatCvt            0      0.00%     80.23% # Class of committed instruction
system.cpu0.commit.op_class_0::SimdFloatDiv            0      0.00%     80.23% # Class of committed instruction
system.cpu0.commit.op_class_0::SimdFloatMisc            0      0.00%     80.23% # Class of committed instruction
system.cpu0.commit.op_class_0::SimdFloatMult            0      0.00%     80.23% # Class of committed instruction
system.cpu0.commit.op_class_0::SimdFloatMultAcc            0      0.00%     80.23% # Class of committed instruction
system.cpu0.commit.op_class_0::SimdFloatSqrt            0      0.00%     80.23% # Class of committed instruction
system.cpu0.commit.op_class_0::MemRead         556646     18.63%     98.87% # Class of committed instruction
system.cpu0.commit.op_class_0::MemWrite         31877      1.07%     99.94% # Class of committed instruction
system.cpu0.commit.op_class_0::FloatMemRead         1926      0.06%    100.00% # Class of committed instruction
system.cpu0.commit.op_class_0::FloatMemWrite            0      0.00%    100.00% # Class of committed instruction
system.cpu0.commit.op_class_0::IprAccess            0      0.00%    100.00% # Class of committed instruction
system.cpu0.commit.op_class_0::InstPrefetch            0      0.00%    100.00% # Class of committed instruction
system.cpu0.commit.op_class_0::total          2987158                       # Class of committed instruction
system.cpu0.commit.bw_lim_events                53985                       # number cycles where commit BW limit reached
system.cpu0.rob.rob_reads                    37590040                       # The number of ROB reads
system.cpu0.rob.rob_writes                   16365499                       # The number of ROB writes
system.cpu0.timesIdled                            394                       # Number of times that the entire CPU went into an idle state and unscheduled itself
system.cpu0.idleCycles                          45162                       # Total number of cycles that the CPU has spent unscheduled due to idling
system.cpu0.committedInsts                    1495165                       # Number of Instructions Simulated
system.cpu0.committedOps                      2987158                       # Number of Ops (including micro ops) Simulated
system.cpu0.cpi                             20.422287                       # CPI: Cycles Per Instruction
system.cpu0.cpi_total                       20.422287                       # CPI: Total CPI of All Threads
system.cpu0.ipc                              0.048966                       # IPC: Instructions Per Cycle
system.cpu0.ipc_total                        0.048966                       # IPC: Total IPC of All Threads
system.cpu0.int_regfile_reads                 5535668                       # number of integer regfile reads
system.cpu0.int_regfile_writes                4695778                       # number of integer regfile writes
system.cpu0.fp_regfile_reads                    30277                       # number of floating regfile reads
system.cpu0.fp_regfile_writes                   15091                       # number of floating regfile writes
system.cpu0.cc_regfile_reads                  3521314                       # number of cc regfile reads
system.cpu0.cc_regfile_writes                 1505349                       # number of cc regfile writes
system.cpu0.misc_regfile_reads                2913848                       # number of misc regfile reads
system.cpu0.dcache.tags.pwrStateResidencyTicks::UNDEFINED  15267344125                       # Cumulative time (in ticks) in various power states
system.cpu0.dcache.tags.replacements           291155                       # number of replacements
system.cpu0.dcache.tags.tagsinuse                1024                       # Cycle average of tags in use
system.cpu0.dcache.tags.total_refs             356370                       # Total number of references to valid blocks.
system.cpu0.dcache.tags.sampled_refs           291155                       # Sample count of references to valid blocks.
system.cpu0.dcache.tags.avg_refs             1.223987                       # Average number of references to valid blocks.
system.cpu0.dcache.tags.warmup_cycle                0                       # Cycle when the warmup percentage was hit.
system.cpu0.dcache.tags.occ_blocks::cpu0.data         1024                       # Average occupied blocks per requestor
system.cpu0.dcache.tags.occ_percent::cpu0.data            1                       # Average percentage of cache occupancy
system.cpu0.dcache.tags.occ_percent::total            1                       # Average percentage of cache occupancy
system.cpu0.dcache.tags.occ_task_id_blocks::1024         1024                       # Occupied blocks per task id
system.cpu0.dcache.tags.age_task_id_blocks_1024::0          182                       # Occupied blocks per task id
system.cpu0.dcache.tags.age_task_id_blocks_1024::1          754                       # Occupied blocks per task id
system.cpu0.dcache.tags.age_task_id_blocks_1024::2           88                       # Occupied blocks per task id
system.cpu0.dcache.tags.occ_task_id_percent::1024            1                       # Percentage of cache occupancy per task id
system.cpu0.dcache.tags.tag_accesses          3758575                       # Number of tag accesses
system.cpu0.dcache.tags.data_accesses         3758575                       # Number of data accesses
system.cpu0.dcache.pwrStateResidencyTicks::UNDEFINED  15267344125                       # Cumulative time (in ticks) in various power states
system.cpu0.dcache.ReadReq_hits::cpu0.data       325202                       # number of ReadReq hits
system.cpu0.dcache.ReadReq_hits::total         325202                       # number of ReadReq hits
system.cpu0.dcache.WriteReq_hits::cpu0.data        30760                       # number of WriteReq hits
system.cpu0.dcache.WriteReq_hits::total         30760                       # number of WriteReq hits
system.cpu0.dcache.demand_hits::cpu0.data       355962                       # number of demand (read+write) hits
system.cpu0.dcache.demand_hits::total          355962                       # number of demand (read+write) hits
system.cpu0.dcache.overall_hits::cpu0.data       355962                       # number of overall hits
system.cpu0.dcache.overall_hits::total         355962                       # number of overall hits
system.cpu0.dcache.ReadReq_misses::cpu0.data       509776                       # number of ReadReq misses
system.cpu0.dcache.ReadReq_misses::total       509776                       # number of ReadReq misses
system.cpu0.dcache.WriteReq_misses::cpu0.data         1117                       # number of WriteReq misses
system.cpu0.dcache.WriteReq_misses::total         1117                       # number of WriteReq misses
system.cpu0.dcache.demand_misses::cpu0.data       510893                       # number of demand (read+write) misses
system.cpu0.dcache.demand_misses::total        510893                       # number of demand (read+write) misses
system.cpu0.dcache.overall_misses::cpu0.data       510893                       # number of overall misses
system.cpu0.dcache.overall_misses::total       510893                       # number of overall misses
system.cpu0.dcache.ReadReq_miss_latency::cpu0.data  34259966500                       # number of ReadReq miss cycles
system.cpu0.dcache.ReadReq_miss_latency::total  34259966500                       # number of ReadReq miss cycles
system.cpu0.dcache.WriteReq_miss_latency::cpu0.data     41463999                       # number of WriteReq miss cycles
system.cpu0.dcache.WriteReq_miss_latency::total     41463999                       # number of WriteReq miss cycles
system.cpu0.dcache.demand_miss_latency::cpu0.data  34301430499                       # number of demand (read+write) miss cycles
system.cpu0.dcache.demand_miss_latency::total  34301430499                       # number of demand (read+write) miss cycles
system.cpu0.dcache.overall_miss_latency::cpu0.data  34301430499                       # number of overall miss cycles
system.cpu0.dcache.overall_miss_latency::total  34301430499                       # number of overall miss cycles
system.cpu0.dcache.ReadReq_accesses::cpu0.data       834978                       # number of ReadReq accesses(hits+misses)
system.cpu0.dcache.ReadReq_accesses::total       834978                       # number of ReadReq accesses(hits+misses)
system.cpu0.dcache.WriteReq_accesses::cpu0.data        31877                       # number of WriteReq accesses(hits+misses)
system.cpu0.dcache.WriteReq_accesses::total        31877                       # number of WriteReq accesses(hits+misses)
system.cpu0.dcache.demand_accesses::cpu0.data       866855                       # number of demand (read+write) accesses
system.cpu0.dcache.demand_accesses::total       866855                       # number of demand (read+write) accesses
system.cpu0.dcache.overall_accesses::cpu0.data       866855                       # number of overall (read+write) accesses
system.cpu0.dcache.overall_accesses::total       866855                       # number of overall (read+write) accesses
system.cpu0.dcache.ReadReq_miss_rate::cpu0.data     0.610526                       # miss rate for ReadReq accesses
system.cpu0.dcache.ReadReq_miss_rate::total     0.610526                       # miss rate for ReadReq accesses
system.cpu0.dcache.WriteReq_miss_rate::cpu0.data     0.035041                       # miss rate for WriteReq accesses
system.cpu0.dcache.WriteReq_miss_rate::total     0.035041                       # miss rate for WriteReq accesses
system.cpu0.dcache.demand_miss_rate::cpu0.data     0.589364                       # miss rate for demand accesses
system.cpu0.dcache.demand_miss_rate::total     0.589364                       # miss rate for demand accesses
system.cpu0.dcache.overall_miss_rate::cpu0.data     0.589364                       # miss rate for overall accesses
system.cpu0.dcache.overall_miss_rate::total     0.589364                       # miss rate for overall accesses
system.cpu0.dcache.ReadReq_avg_miss_latency::cpu0.data 67205.922797                       # average ReadReq miss latency
system.cpu0.dcache.ReadReq_avg_miss_latency::total 67205.922797                       # average ReadReq miss latency
system.cpu0.dcache.WriteReq_avg_miss_latency::cpu0.data 37120.858550                       # average WriteReq miss latency
system.cpu0.dcache.WriteReq_avg_miss_latency::total 37120.858550                       # average WriteReq miss latency
system.cpu0.dcache.demand_avg_miss_latency::cpu0.data 67140.145782                       # average overall miss latency
[...]
system.l2.ReadSharedReq_hits::cpu0.data        105493                       # number of ReadSharedReq hits
system.l2.ReadSharedReq_hits::total            105493                       # number of ReadSharedReq hits
system.l2.demand_hits::cpu0.data               106303                       # number of demand (read+write) hits
system.l2.demand_hits::total                   106303                       # number of demand (read+write) hits
system.l2.overall_hits::cpu0.data              106303                       # number of overall hits
system.l2.overall_hits::total                  106303                       # number of overall hits
system.l2.ReadExReq_misses::cpu0.data             299                       # number of ReadExReq misses
system.l2.ReadExReq_misses::total                 299                       # number of ReadExReq misses
system.l2.ReadSharedReq_misses::cpu0.data       184552                       # number of ReadSharedReq misses
system.l2.ReadSharedReq_misses::total          184552                       # number of ReadSharedReq misses
system.l2.demand_misses::cpu0.data             184851                       # number of demand (read+write) misses
system.l2.demand_misses::total                 184851                       # number of demand (read+write) misses
system.l2.overall_misses::cpu0.data            184851                       # number of overall misses
system.l2.overall_misses::total                184851                       # number of overall misses
system.l2.ReadExReq_miss_latency::cpu0.data     29364000                       # number of ReadExReq miss cycles
system.l2.ReadExReq_miss_latency::total      29364000                       # number of ReadExReq miss cycles
system.l2.ReadSharedReq_miss_latency::cpu0.data  17496770500                       # number of ReadSharedReq miss cycles
system.l2.ReadSharedReq_miss_latency::total  17496770500                       # number of ReadSharedReq miss cycles
system.l2.demand_miss_latency::cpu0.data  17526134500                       # number of demand (read+write) miss cycles
system.l2.demand_miss_latency::total      17526134500                       # number of demand (read+write) miss cycles
system.l2.overall_miss_latency::cpu0.data  17526134500                       # number of overall miss cycles
system.l2.overall_miss_latency::total     17526134500                       # number of overall miss cycles
system.l2.WritebackDirty_accesses::writebacks         3045                       # number of WritebackDirty accesses(hits+misses)
system.l2.WritebackDirty_accesses::total         3045                       # number of WritebackDirty accesses(hits+misses)
system.l2.ReadExReq_accesses::cpu0.data          1109                       # number of ReadExReq accesses(hits+misses)
system.l2.ReadExReq_accesses::total              1109                       # number of ReadExReq accesses(hits+misses)
system.l2.ReadSharedReq_accesses::cpu0.data       290045                       # number of ReadSharedReq accesses(hits+misses)
system.l2.ReadSharedReq_accesses::total        290045                       # number of ReadSharedReq accesses(hits+misses)
system.l2.demand_accesses::cpu0.data           291154                       # number of demand (read+write) accesses
system.l2.demand_accesses::total               291154                       # number of demand (read+write) accesses
system.l2.overall_accesses::cpu0.data          291154                       # number of overall (read+write) accesses
system.l2.overall_accesses::total              291154                       # number of overall (read+write) accesses
system.l2.ReadExReq_miss_rate::cpu0.data     0.269612                       # miss rate for ReadExReq accesses
system.l2.ReadExReq_miss_rate::total         0.269612                       # miss rate for ReadExReq accesses
system.l2.ReadSharedReq_miss_rate::cpu0.data     0.636287                       # miss rate for ReadSharedReq accesses
system.l2.ReadSharedReq_miss_rate::total     0.636287                       # miss rate for ReadSharedReq accesses
system.l2.demand_miss_rate::cpu0.data        0.634891                       # miss rate for demand accesses
system.l2.demand_miss_rate::total            0.634891                       # miss rate for demand accesses
system.l2.overall_miss_rate::cpu0.data       0.634891                       # miss rate for overall accesses
system.l2.overall_miss_rate::total           0.634891                       # miss rate for overall accesses
system.l2.ReadExReq_avg_miss_latency::cpu0.data 98207.357860                       # average ReadExReq miss latency
system.l2.ReadExReq_avg_miss_latency::total 98207.357860                       # average ReadExReq miss latency
system.l2.ReadSharedReq_avg_miss_latency::cpu0.data 94806.723850                       # average ReadSharedReq miss latency
system.l2.ReadSharedReq_avg_miss_latency::total 94806.723850                       # average ReadSharedReq miss latency
system.l2.demand_avg_miss_latency::cpu0.data 94812.224440                       # average overall miss latency
system.l2.demand_avg_miss_latency::total 94812.224440                       # average overall miss latency
system.l2.overall_avg_miss_latency::cpu0.data 94812.224440                       # average overall miss latency
system.l2.overall_avg_miss_latency::total 94812.224440                       # average overall miss latency
system.l2.blocked_cycles::no_mshrs                  0                       # number of cycles access was blocked
system.l2.blocked_cycles::no_targets                0                       # number of cycles access was blocked
system.l2.blocked::no_mshrs                         0                       # number of cycles access was blocked
system.l2.blocked::no_targets                       0                       # number of cycles access was blocked
system.l2.avg_blocked_cycles::no_mshrs            nan                       # average number of cycles each access was blocked
system.l2.avg_blocked_cycles::no_targets          nan                       # average number of cycles each access was blocked
system.l2.writebacks::writebacks                  426                       # number of writebacks
system.l2.writebacks::total                       426                       # number of writebacks
system.l2.ReadExReq_mshr_misses::cpu0.data          299                       # number of ReadExReq MSHR misses
system.l2.ReadExReq_mshr_misses::total            299                       # number of ReadExReq MSHR misses
system.l2.ReadSharedReq_mshr_misses::cpu0.data       184552                       # number of ReadSharedReq MSHR misses
system.l2.ReadSharedReq_mshr_misses::total       184552                       # number of ReadSharedReq MSHR misses
system.l2.demand_mshr_misses::cpu0.data        184851                       # number of demand (read+write) MSHR misses
system.l2.demand_mshr_misses::total            184851                       # number of demand (read+write) MSHR misses
system.l2.overall_mshr_misses::cpu0.data       184851                       # number of overall MSHR misses
system.l2.overall_mshr_misses::total           184851                       # number of overall MSHR misses
system.l2.ReadExReq_mshr_miss_latency::cpu0.data     26374000                       # number of ReadExReq MSHR miss cycles
system.l2.ReadExReq_mshr_miss_latency::total     26374000                       # number of ReadExReq MSHR miss cycles
system.l2.ReadSharedReq_mshr_miss_latency::cpu0.data  15651250500                       # number of ReadSharedReq MSHR miss cycles
system.l2.ReadSharedReq_mshr_miss_latency::total  15651250500                       # number of ReadSharedReq MSHR miss cycles
system.l2.demand_mshr_miss_latency::cpu0.data  15677624500                       # number of demand (read+write) MSHR miss cycles
system.l2.demand_mshr_miss_latency::total  15677624500                       # number of demand (read+write) MSHR miss cycles
system.l2.overall_mshr_miss_latency::cpu0.data  15677624500                       # number of overall MSHR miss cycles
system.l2.overall_mshr_miss_latency::total  15677624500                       # number of overall MSHR miss cycles
system.l2.ReadExReq_mshr_miss_rate::cpu0.data     0.269612                       # mshr miss rate for ReadExReq accesses
system.l2.ReadExReq_mshr_miss_rate::total     0.269612                       # mshr miss rate for ReadExReq accesses
system.l2.ReadSharedReq_mshr_miss_rate::cpu0.data     0.636287                       # mshr miss rate for ReadSharedReq accesses
system.l2.ReadSharedReq_mshr_miss_rate::total     0.636287                       # mshr miss rate for ReadSharedReq accesses
system.l2.demand_mshr_miss_rate::cpu0.data     0.634891                       # mshr miss rate for demand accesses
system.l2.demand_mshr_miss_rate::total       0.634891                       # mshr miss rate for demand accesses
system.l2.overall_mshr_miss_rate::cpu0.data     0.634891                       # mshr miss rate for overall accesses
system.l2.overall_mshr_miss_rate::total      0.634891                       # mshr miss rate for overall accesses
system.l2.ReadExReq_avg_mshr_miss_latency::cpu0.data 88207.357860                       # average ReadExReq mshr miss latency
system.l2.ReadExReq_avg_mshr_miss_latency::total 88207.357860                       # average ReadExReq mshr miss latency
system.l2.ReadSharedReq_avg_mshr_miss_latency::cpu0.data 84806.723850                       # average ReadSharedReq mshr miss latency
system.l2.ReadSharedReq_avg_mshr_miss_latency::total 84806.723850                       # average ReadSharedReq mshr miss latency
system.l2.demand_avg_mshr_miss_latency::cpu0.data 84812.224440                       # average overall mshr miss latency
system.l2.demand_avg_mshr_miss_latency::total 84812.224440                       # average overall mshr miss latency
system.l2.overall_avg_mshr_miss_latency::cpu0.data 84812.224440                       # average overall mshr miss latency
system.l2.overall_avg_mshr_miss_latency::total 84812.224440                       # average overall mshr miss latency
system.membus.snoop_filter.tot_requests        369700                       # Total number of requests made to the snoop filter.
system.membus.snoop_filter.hit_single_requests       184850                       # Number of requests hitting in the snoop filter with a single holder of the requested data.
system.membus.snoop_filter.hit_multi_requests            0                       # Number of requests hitting in the snoop filter with multiple (>1) holders of the requested data.
system.membus.snoop_filter.tot_snoops               0                       # Total number of snoops made to the snoop filter.
system.membus.snoop_filter.hit_single_snoops            0                       # Number of snoops hitting in the snoop filter with a single holder of the requested data.
system.membus.snoop_filter.hit_multi_snoops            0                       # Number of snoops hitting in the snoop filter with multiple (>1) holders of the requested data.
system.membus.pwrStateResidencyTicks::UNDEFINED  15267344125                       # Cumulative time (in ticks) in various power states
system.membus.trans_dist::ReadResp             184552                       # Transaction distribution
system.membus.trans_dist::WritebackDirty          426                       # Transaction distribution
system.membus.trans_dist::CleanEvict           184423                       # Transaction distribution
system.membus.trans_dist::ReadExReq               299                       # Transaction distribution
system.membus.trans_dist::ReadExResp              299                       # Transaction distribution
system.membus.trans_dist::ReadSharedReq        184552                       # Transaction distribution
system.membus.pkt_count_system.l2.mem_side::system.mem_ctrls.port       554551                       # Packet count per connected master and slave (bytes)
system.membus.pkt_count_system.l2.mem_side::total       554551                       # Packet count per connected master and slave (bytes)
system.membus.pkt_count::total                 554551                       # Packet count per connected master and slave (bytes)
system.membus.pkt_size_system.l2.mem_side::system.mem_ctrls.port     11857728                       # Cumulative packet size per connected master and slave (bytes)
system.membus.pkt_size_system.l2.mem_side::total     11857728                       # Cumulative packet size per connected master and slave (bytes)
system.membus.pkt_size::total                11857728                       # Cumulative packet size per connected master and slave (bytes)
system.membus.snoops                                0                       # Total snoops (count)
system.membus.snoopTraffic                          0                       # Total snoop traffic (bytes)
system.membus.snoop_fanout::samples            184851                       # Request fanout histogram
system.membus.snoop_fanout::mean                    0                       # Request fanout histogram
system.membus.snoop_fanout::stdev                   0                       # Request fanout histogram
system.membus.snoop_fanout::underflows              0      0.00%      0.00% # Request fanout histogram
system.membus.snoop_fanout::0                  184851    100.00%    100.00% # Request fanout histogram
system.membus.snoop_fanout::1                       0      0.00%    100.00% # Request fanout histogram
system.membus.snoop_fanout::overflows               0      0.00%    100.00% # Request fanout histogram
system.membus.snoop_fanout::min_value               0                       # Request fanout histogram
system.membus.snoop_fanout::max_value               0                       # Request fanout histogram
system.membus.snoop_fanout::total              184851                       # Request fanout histogram
system.membus.reqLayer8.occupancy           434833000                       # Layer occupancy (ticks)
system.membus.reqLayer8.utilization               2.8                       # Layer utilization (%)
system.membus.respLayer1.occupancy         1001965500                       # Layer occupancy (ticks)
system.membus.respLayer1.utilization              6.6                       # Layer utilization (%)
system.tol2bus.snoop_filter.tot_requests       582309                       # Total number of requests made to the snoop filter.
system.tol2bus.snoop_filter.hit_single_requests       291155                       # Number of requests hitting in the snoop filter with a single holder of the requested data.
system.tol2bus.snoop_filter.hit_multi_requests          410                       # Number of requests hitting in the snoop filter with multiple (>1) holders of the requested data.
system.tol2bus.snoop_filter.tot_snoops              2                       # Total number of snoops made to the snoop filter.
system.tol2bus.snoop_filter.hit_single_snoops            2                       # Number of snoops hitting in the snoop filter with a single holder of the requested data.
system.tol2bus.snoop_filter.hit_multi_snoops            0                       # Number of snoops hitting in the snoop filter with multiple (>1) holders of the requested data.
system.tol2bus.pwrStateResidencyTicks::UNDEFINED  15267344125                       # Cumulative time (in ticks) in various power states
system.tol2bus.trans_dist::ReadResp            290046                       # Transaction distribution
system.tol2bus.trans_dist::WritebackDirty         3471                       # Transaction distribution
system.tol2bus.trans_dist::CleanEvict          472535                       # Transaction distribution
system.tol2bus.trans_dist::ReadExReq             1109                       # Transaction distribution
system.tol2bus.trans_dist::ReadExResp            1109                       # Transaction distribution
system.tol2bus.trans_dist::ReadSharedReq       290045                       # Transaction distribution
system.tol2bus.pkt_count_system.cpu0.dcache.mem_side::system.l2.cpu_side       873464                       # Packet count per connected master and slave (bytes)
system.tol2bus.pkt_count::total                873464                       # Packet count per connected master and slave (bytes)
system.tol2bus.pkt_size_system.cpu0.dcache.mem_side::system.l2.cpu_side     18828800                       # Cumulative packet size per connected master and slave (bytes)
system.tol2bus.pkt_size::total               18828800                       # Cumulative packet size per connected master and slave (bytes)
system.tol2bus.snoops                          184851                       # Total snoops (count)
system.tol2bus.snoopTraffic                     27264                       # Total snoop traffic (bytes)
system.tol2bus.snoop_fanout::samples           476005                       # Request fanout histogram
system.tol2bus.snoop_fanout::mean            0.000866                       # Request fanout histogram
system.tol2bus.snoop_fanout::stdev           0.029407                       # Request fanout histogram
system.tol2bus.snoop_fanout::underflows             0      0.00%      0.00% # Request fanout histogram
system.tol2bus.snoop_fanout::0                 475593     99.91%     99.91% # Request fanout histogram
system.tol2bus.snoop_fanout::1                    412      0.09%    100.00% # Request fanout histogram
system.tol2bus.snoop_fanout::2                      0      0.00%    100.00% # Request fanout histogram
system.tol2bus.snoop_fanout::3                      0      0.00%    100.00% # Request fanout histogram
system.tol2bus.snoop_fanout::4                      0      0.00%    100.00% # Request fanout histogram
system.tol2bus.snoop_fanout::5                      0      0.00%    100.00% # Request fanout histogram
system.tol2bus.snoop_fanout::6                      0      0.00%    100.00% # Request fanout histogram
system.tol2bus.snoop_fanout::7                      0      0.00%    100.00% # Request fanout histogram
system.tol2bus.snoop_fanout::8                      0      0.00%    100.00% # Request fanout histogram
system.tol2bus.snoop_fanout::9                      0      0.00%    100.00% # Request fanout histogram
system.tol2bus.snoop_fanout::10                     0      0.00%    100.00% # Request fanout histogram
system.tol2bus.snoop_fanout::11                     0      0.00%    100.00% # Request fanout histogram
system.tol2bus.snoop_fanout::12                     0      0.00%    100.00% # Request fanout histogram
system.tol2bus.snoop_fanout::13                     0      0.00%    100.00% # Request fanout histogram
system.tol2bus.snoop_fanout::14                     0      0.00%    100.00% # Request fanout histogram
system.tol2bus.snoop_fanout::15                     0      0.00%    100.00% # Request fanout histogram
system.tol2bus.snoop_fanout::16                     0      0.00%    100.00% # Request fanout histogram
system.tol2bus.snoop_fanout::overflows              0      0.00%    100.00% # Request fanout histogram
system.tol2bus.snoop_fanout::min_value              0                       # Request fanout histogram
system.tol2bus.snoop_fanout::max_value              1                       # Request fanout histogram
system.tol2bus.snoop_fanout::total             476005                       # Request fanout histogram
system.tol2bus.reqLayer0.occupancy          294199500                       # Layer occupancy (ticks)
system.tol2bus.reqLayer0.utilization              1.9                       # Layer utilization (%)
system.tol2bus.respLayer1.occupancy         436732500                       # Layer occupancy (ticks)
system.tol2bus.respLayer1.utilization             2.9                       # Layer utilization (%)

---------- End Simulation Statistics   ----------
