
---------- Begin Simulation Statistics ----------
sim_seconds                                  0.015267                       # Number of seconds simulated
sim_ticks                                 15267344125                       # Number of ticks simulated
final_tick                               4595470581625                       # Number of ticks from beginning of simulation (restored from checkpoints and never reset)
sim_freq                                 1000000000000                       # Frequency of simulated ticks
host_inst_rate                              116742921                       # Simulator instruction rate (inst/s)
host_op_rate                                216909311                       # Simulator op (including micro ops) rate (op/s)
host_tick_rate                              308361083                       # Simulator tick rate (ticks/s)
host_mem_usage                                2332668                       # Number of bytes of host memory used
host_seconds                                    49.51                       # Real time elapsed on the host
sim_insts                                  5780086464                       # Number of instructions simulated
sim_ops                                   10739450380                       # Number of ops (including micro ops) simulated
system.voltage_domain.voltage                       1                       # Voltage in Volts
system.clk_domain.clock                          1000                       # Clock period in ticks
system.mem_ctrls.pwrStateResidencyTicks::UNDEFINED  15267344125                       # Cumulative time (in ticks) in various power states
system.mem_ctrls.bytes_read::cpu0.data       11567936                       # Number of bytes read from this memory
system.mem_ctrls.bytes_read::total           11567936                       # Number of bytes read from this memory
system.mem_ctrls.bytes_written::writebacks        28544                       # Number of bytes written to this memory
system.mem_ctrls.bytes_written::total           28544                       # Number of bytes written to this memory
system.mem_ctrls.num_reads::cpu0.data          180749                       # Number of read requests responded to by this memory
system.mem_ctrls.num_reads::total              180749                       # Number of read requests responded to by this memory
system.mem_ctrls.num_writes::writebacks           446                       # Number of write requests responded to by this memory
system.mem_ctrls.num_writes::total                446                       # Number of write requests responded to by this memory
system.mem_ctrls.bw_read::cpu0.data         757691443                       # Total read bandwidth from this memory (bytes/s)
system.mem_ctrls.bw_read::total             757691443                       # Total read bandwidth from this memory (bytes/s)
system.mem_ctrls.bw_write::writebacks         1869611                       # Write bandwidth from this memory (bytes/s)
system.mem_ctrls.bw_write::total              1869611                       # Write bandwidth from this memory (bytes/s)
system.mem_ctrls.bw_total::writebacks         1869611                       # Total bandwidth to/from this memory (bytes/s)
system.mem_ctrls.bw_total::cpu0.data        757691443                       # Total bandwidth to/from this memory (bytes/s)
system.mem_ctrls.bw_total::total            759561054                       # Total bandwidth to/from this memory (bytes/s)
system.mem_ctrls.readReqs                      180749                       # Number of read requests accepted
system.mem_ctrls.writeReqs                        446                       # Number of write requests accepted
system.mem_ctrls.readBursts                    180749                       # Number of DRAM read bursts, including those serviced by the write queue
system.mem_ctrls.writeBursts                      446                       # Number of DRAM write bursts, including those merged in the write queue
system.mem_ctrls.bytesReadDRAM               11564800                       # Total number of bytes read from DRAM
system.mem_ctrls.bytesReadWrQ                    3136                       # Total number of bytes read from write queue
system.mem_ctrls.bytesWritten                   27648                       # Total number of bytes written to DRAM
system.mem_ctrls.bytesReadSys                11567936                       # Total read bytes from the system interface side
system.mem_ctrls.bytesWrittenSys                28544                       # Total written bytes from the system interface side
system.mem_ctrls.servicedByWrQ                     49                       # Number of DRAM read bursts serviced by the write queue
system.mem_ctrls.mergedWrBursts                     0                       # Number of DRAM write bursts merged with an existing one
system.mem_ctrls.neitherReadNorWriteReqs            0                       # Number of requests that are neither read nor write
system.mem_ctrls.perBankRdBursts::0             11018                       # Per bank write bursts
system.mem_ctrls.perBankRdBursts::1             11229                       # Per bank write bursts
system.mem_ctrls.perBankRdBursts::2             11205                       # Per bank write bursts
system.mem_ctrls.perBankRdBursts::3             11135                       # Per bank write bursts
system.mem_ctrls.perBankRdBursts::4             11410                       # Per bank write bursts
system.mem_ctrls.perBankRdBursts::5             11380                       # Per bank write bursts
system.mem_ctrls.perBankRdBursts::6             11246                       # Per bank write bursts
system.mem_ctrls.perBankRdBursts::7             11235                       # Per bank write bursts
system.mem_ctrls.perBankRdBursts::8             11207                       # Per bank write bursts
system.mem_ctrls.perBankRdBursts::9             11117                       # Per bank write bursts
system.mem_ctrls.perBankRdBursts::10            11095                       # Per bank write bursts
system.mem_ctrls.perBankRdBursts::11            11250                       # Per bank write bursts
system.mem_ctrls.perBankRdBursts::12            11791                       # Per bank write bursts
system.mem_ctrls.perBankRdBursts::13            11691                       # Per bank write bursts
system.mem_ctrls.perBankRdBursts::14            11452                       # Per bank write bursts
system.mem_ctrls.perBankRdBursts::15            11239                       # Per bank write bursts
system.mem_ctrls.perBankWrBursts::0                 0                       # Per bank write bursts
system.mem_ctrls.perBankWrBursts::1                 0                       # Per bank write bursts
system.mem_ctrls.perBankWrBursts::2                 0                       # Per bank write bursts
system.mem_ctrls.perBankWrBursts::3                14                       # Per bank write bursts
system.mem_ctrls.perBankWrBursts::4                 0                       # Per bank write bursts
system.mem_ctrls.perBankWrBursts::5                 0                       # Per bank write bursts
system.mem_ctrls.perBankWrBursts::6                14                       # Per bank write bursts
system.mem_ctrls.perBankWrBursts::7               101                       # Per bank write bursts
system.mem_ctrls.perBankWrBursts::8               125                       # Per bank write bursts
system.mem_ctrls.perBankWrBursts::9                64                       # Per bank write bursts
system.mem_ctrls.perBankWrBursts::10                0                       # Per bank write bursts
system.mem_ctrls.perBankWrBursts::11                0                       # Per bank write bursts
system.mem_ctrls.perBankWrBursts::12               88                       # Per bank write bursts
system.mem_ctrls.perBankWrBursts::13               26                       # Per bank write bursts
system.mem_ctrls.perBankWrBursts::14                0                       # Per bank write bursts
system.mem_ctrls.perBankWrBursts::15                0                       # Per bank write bursts
system.mem_ctrls.numRdRetry                         0                       # Number of times read queue was full causing retry
system.mem_ctrls.numWrRetry                         0                       # Number of times write queue was full causing retry
system.mem_ctrls.totGap                   15267384500                       # Total gap between requests
system.mem_ctrls.readPktSize::0                     0                       # Read request sizes (log2)
system.mem_ctrls.readPktSize::1                     0                       # Read request sizes (log2)
system.mem_ctrls.readPktSize::2                     0                       # Read request sizes (log2)
system.mem_ctrls.readPktSize::3                     0                       # Read request sizes (log2)
system.mem_ctrls.readPktSize::4                     0                       # Read request sizes (log2)
system.mem_ctrls.readPktSize::5                     0                       # Read request sizes (log2)
system.mem_ctrls.readPktSize::6                180749                       # Read request sizes (log2)
system.mem_ctrls.writePktSize::0                    0                       # Write request sizes (log2)
system.mem_ctrls.writePktSize::1                    0                       # Write request sizes (log2)
system.mem_ctrls.writePktSize::2                    0                       # Write request sizes (log2)
system.mem_ctrls.writePktSize::3                    0                       # Write request sizes (log2)
system.mem_ctrls.writePktSize::4                    0                       # Write request sizes (log2)
system.mem_ctrls.writePktSize::5                    0                       # Write request sizes (log2)
system.mem_ctrls.writePktSize::6                  446                       # Write request sizes (log2)
system.mem_ctrls.rdQLenPdf::0                  138409                       # What read queue length does an incoming req see
system.mem_ctrls.rdQLenPdf::1                   39586                       # What read queue length does an incoming req see
system.mem_ctrls.rdQLenPdf::2                    2648                       # What read queue length does an incoming req see
system.mem_ctrls.rdQLenPdf::3                      57                       # What read queue length does an incoming req see
system.mem_ctrls.rdQLenPdf::4                       0                       # What read queue length does an incoming req see
system.mem_ctrls.rdQLenPdf::5                       0                       # What read queue length does an incoming req see
system.mem_ctrls.rdQLenPdf::6                       0                       # What read queue length does an incoming req see
system.mem_ctrls.rdQLenPdf::7                       0                       # What read queue length does an incoming req see
system.mem_ctrls.rdQLenPdf::8                       0                       # What read queue length does an incoming req see
system.mem_ctrls.rdQLenPdf::9                       0                       # What read queue length does an incoming req see
system.mem_ctrls.rdQLenPdf::10                      0                       # What read queue length does an incoming req see
system.mem_ctrls.rdQLenPdf::11                      0                       # What read queue length does an incoming req see
system.mem_ctrls.rdQLenPdf::12                      0                       # What read queue length does an incoming req see
system.mem_ctrls.rdQLenPdf::13                      0                       # What read queue length does an incoming req see
system.mem_ctrls.rdQLenPdf::14                      0                       # What read queue length does an incoming req see
system.mem_ctrls.rdQLenPdf::15                      0                       # What read queue length does an incoming req see
system.mem_ctrls.rdQLenPdf::16                      0                       # What read queue length does an incoming req see
system.mem_ctrls.rdQLenPdf::17                      0                       # What read queue length does an incoming req see
system.mem_ctrls.rdQLenPdf::18                      0                       # What read queue length does an incoming req see
system.mem_ctrls.rdQLenPdf::19                      0                       # What read queue length does an incoming req see
system.mem_ctrls.rdQLenPdf::20                      0                       # What read queue length does an incoming req see
system.mem_ctrls.rdQLenPdf::21                      0                       # What read queue length does an incoming req see
system.mem_ctrls.rdQLenPdf::22                      0                       # What read queue length does an incoming req see
system.mem_ctrls.rdQLenPdf::23                      0                       # What read queue length does an incoming req see
system.mem_ctrls.rdQLenPdf::24                      0                       # What read queue length does an incoming req see
system.mem_ctrls.rdQLenPdf::25                      0                       # What read queue length does an incoming req see
system.mem_ctrls.rdQLenPdf::26                      0                       # What read queue length does an incoming req see
system.mem_ctrls.rdQLenPdf::27                      0                       # What read queue length does an incoming req see
system.mem_ctrls.rdQLenPdf::28                      0                       # What read queue length does an incoming req see
system.mem_ctrls.rdQLenPdf::29                      0                       # What read queue length does an incoming req see
system.mem_ctrls.rdQLenPdf::30                      0                       # What read queue length does an incoming req see
system.mem_ctrls.rdQLenPdf::31                      0                       # What read queue length does an incoming req see
system.mem_ctrls.wrQLenPdf::0                       0                       # What write queue length does an incoming req see
system.mem_ctrls.wrQLenPdf::1                       0                       # What write queue length does an incoming req see
system.mem_ctrls.wrQLenPdf::2                       0                       # What write queue length does an incoming req see
system.mem_ctrls.wrQLenPdf::3                       0                       # What write queue length does an incoming req see
system.mem_ctrls.wrQLenPdf::4                       0                       # What write queue length does an incoming req see
system.mem_ctrls.wrQLenPdf::5                       0                       # What write queue length does an incoming req see
system.mem_ctrls.wrQLenPdf::6                       0                       # What write queue length does an incoming req see
system.mem_ctrls.wrQLenPdf::7                       0                       # What write queue length does an incoming req see
system.mem_ctrls.wrQLenPdf::8                       0                       # What write queue length does an incoming req see
system.mem_ctrls.wrQLenPdf::9                       0                       # What write queue length does an incoming req see
system.mem_ctrls.wrQLenPdf::10                      0                       # What write queue length does an incoming req see
system.mem_ctrls.wrQLenPdf::11                      0                       # What write queue length does an incoming req see
system.mem_ctrls.wrQLenPdf::12                      0                       # What write queue length does an incoming req see
system.mem_ctrls.wrQLenPdf::13                      0                       # What write queue length does an incoming req see
system.mem_ctrls.wrQLenPdf::14                      0                       # What write queue length does an incoming req see
system.mem_ctrls.wrQLenPdf::15                      0                       # What write queue length does an incoming req see
system.mem_ctrls.wrQLenPdf::16                      0                       # What write queue length does an incoming req see
system.mem_ctrls.wrQLenPdf::17                     26                       # What write queue length does an incoming req see
system.mem_ctrls.wrQLenPdf::18                     28                       # What write queue length does an incoming req see
system.mem_ctrls.wrQLenPdf::19                     28                       # What write queue length does an incoming req see
system.mem_ctrls.wrQLenPdf::20                     28                       # What write queue length does an incoming req see
system.mem_ctrls.wrQLenPdf::21                     28                       # What write queue length does an incoming req see
system.mem_ctrls.wrQLenPdf::22                     28                       # What write queue length does an incoming req see
system.mem_ctrls.wrQLenPdf::23                     28                       # What write queue length does an incoming req see
system.mem_ctrls.wrQLenPdf::24                     28                       # What write queue length does an incoming req see
system.mem_ctrls.wrQLenPdf::25                     28                       # What write queue length does an incoming req see
system.mem_ctrls.wrQLenPdf::26                     28                       # What write queue length does an incoming req see
system.mem_ctrls.wrQLenPdf::27                     28                       # What write queue length does an incoming req see
system.mem_ctrls.wrQLenPdf::28                     28                       # What write queue length does an incoming req see
system.mem_ctrls.wrQLenPdf::29                     28                       # What write queue length does an incoming req see
system.mem_ctrls.wrQLenPdf::30                     30                       # What write queue length does an incoming req see
system.mem_ctrls.wrQLenPdf::31                     27                       # What write queue length does an incoming req see
system.mem_ctrls.wrQLenPdf::32                     27                       # What write queue length does an incoming req see
system.mem_ctrls.wrQLenPdf::33                      0                       # What write queue length does an incoming req see
system.mem_ctrls.wrQLenPdf::34                      0                       # What write queue length does an incoming req see
system.mem_ctrls.wrQLenPdf::35                      0                       # What write queue length does an incoming req see
system.mem_ctrls.wrQLenPdf::36                      0                       # What write queue length does an incoming req see
system.mem_ctrls.wrQLenPdf::37                      0                       # What write queue length does an incoming req see
system.mem_ctrls.wrQLenPdf::38                      0                       # What write queue length does an incoming req see
system.mem_ctrls.wrQLenPdf::39                      0                       # What write queue length does an incoming req see
system.mem_ctrls.wrQLenPdf::40                      0                       # What write queue length does an incoming req see
system.mem_ctrls.wrQLenPdf::41                      0                       # What write queue length does an incoming req see
system.mem_ctrls.wrQLenPdf::42                      0                       # What write queue length does an incoming req see
system.mem_ctrls.wrQLenPdf::43                      0                       # What write queue length does an incoming req see
system.mem_ctrls.wrQLenPdf::44                      0                       # What write queue length does an incoming req see
system.mem_ctrls.wrQLenPdf::45                      0                       # What write queue length does an incoming req see
system.mem_ctrls.wrQLenPdf::46                      0                       # What write queue length does an incoming req see
system.mem_ctrls.wrQLenPdf::47                      0                       # What write queue length does an incoming req see
system.mem_ctrls.wrQLenPdf::48                      0                       # What write queue length does an incoming req see
system.mem_ctrls.wrQLenPdf::49                      0                       # What write queue length does an incoming req see
system.mem_ctrls.wrQLenPdf::50                      0                       # What write queue length does an incoming req see
system.mem_ctrls.wrQLenPdf::51                      0                       # What write queue length does an incoming req see
system.mem_ctrls.wrQLenPdf::52                      0                       # What write queue length does an incoming req see
system.mem_ctrls.wrQLenPdf::53                      0                       # What write queue length does an incoming req see
system.mem_ctrls.wrQLenPdf::54                      0                       # What write queue length does an incoming req see
system.mem_ctrls.wrQLenPdf::55                      0                       # What write queue length does an incoming req see
system.mem_ctrls.wrQLenPdf::56                      0                       # What write queue length does an incoming req see
system.mem_ctrls.wrQLenPdf::57                      0                       # What write queue length does an incoming req see
system.mem_ctrls.wrQLenPdf::58                      0                       # What write queue length does an incoming req see
system.mem_ctrls.wrQLenPdf::59                      0                       # What write queue length does an incoming req see
system.mem_ctrls.wrQLenPdf::60                      0                       # What write queue length does an incoming req see
system.mem_ctrls.wrQLenPdf::61                      0                       # What write queue length does an incoming req see
system.mem_ctrls.wrQLenPdf::62                      0                       # What write queue length does an incoming req see
system.mem_ctrls.wrQLenPdf::63                      0                       # What write queue length does an incoming req see
system.mem_ctrls.bytesPerActivate::samples        96089                       # Bytes accessed per row activation
system.mem_ctrls.bytesPerActivate::mean    120.646151                       # Bytes accessed per row activation
system.mem_ctrls.bytesPerActivate::gmean   104.144950                       # Bytes accessed per row activation
system.mem_ctrls.bytesPerActivate::stdev    72.462378                       # Bytes accessed per row activation
system.mem_ctrls.bytesPerActivate::0-127        46319     48.20%     48.20% # Bytes accessed per row activation
system.mem_ctrls.bytesPerActivate::128-255        40892     42.56%     90.76% # Bytes accessed per row activation
system.mem_ctrls.bytesPerActivate::256-383         7843      8.16%     98.92% # Bytes accessed per row activation
system.mem_ctrls.bytesPerActivate::384-511          933      0.97%     99.89% # Bytes accessed per row activation
system.mem_ctrls.bytesPerActivate::512-639           70      0.07%     99.97% # Bytes accessed per row activation
system.mem_ctrls.bytesPerActivate::640-767           17      0.02%     99.98% # Bytes accessed per row activation
system.mem_ctrls.bytesPerActivate::768-895            4      0.00%     99.99% # Bytes accessed per row activation
system.mem_ctrls.bytesPerActivate::896-1023            5      0.01%     99.99% # Bytes accessed per row activation
system.mem_ctrls.bytesPerActivate::1024-1151            6      0.01%    100.00% # Bytes accessed per row activation
system.mem_ctrls.bytesPerActivate::total        96089                       # Bytes accessed per row activation
system.mem_ctrls.rdPerTurnAround::samples           27                       # Reads before turning the bus around for writes
system.mem_ctrls.rdPerTurnAround::mean    6361.555556                       # Reads before turning the bus around for writes
system.mem_ctrls.rdPerTurnAround::gmean   6134.143084                       # Reads before turning the bus around for writes
system.mem_ctrls.rdPerTurnAround::stdev   1724.778923                       # Reads before turning the bus around for writes
system.mem_ctrls.rdPerTurnAround::2560-3071            1      3.70%      3.70% # Reads before turning the bus around for writes
system.mem_ctrls.rdPerTurnAround::4096-4607            3     11.11%     14.81% # Reads before turning the bus around for writes
system.mem_ctrls.rdPerTurnAround::4608-5119            2      7.41%     22.22% # Reads before turning the bus around for writes
system.mem_ctrls.rdPerTurnAround::5120-5631            4     14.81%     37.04% # Reads before turning the bus around for writes
system.mem_ctrls.rdPerTurnAround::5632-6143            3     11.11%     48.15% # Reads before turning the bus around for writes
system.mem_ctrls.rdPerTurnAround::6144-6655            4     14.81%     62.96% # Reads before turning the bus around for writes
system.mem_ctrls.rdPerTurnAround::6656-7167            2      7.41%     70.37% # Reads before turning the bus around for writes
system.mem_ctrls.rdPerTurnAround::7168-7679            1      3.70%     74.07% # Reads before turning the bus around for writes
system.mem_ctrls.rdPerTurnAround::7680-8191            4     14.81%     88.89% # Reads before turning the bus around for writes
system.mem_ctrls.rdPerTurnAround::9216-9727            2      7.41%     96.30% # Reads before turning the bus around for writes
system.mem_ctrls.rdPerTurnAround::9728-10239            1      3.70%    100.00% # Reads before turning the bus around for writes
system.mem_ctrls.rdPerTurnAround::total            27                       # Reads before turning the bus around for writes
system.mem_ctrls.wrPerTurnAround::samples           27                       # Writes before turning the bus around for reads
system.mem_ctrls.wrPerTurnAround::mean             16                       # Writes before turning the bus around for reads
system.mem_ctrls.wrPerTurnAround::gmean     16.000000                       # Writes before turning the bus around for reads
system.mem_ctrls.wrPerTurnAround::16               27    100.00%    100.00% # Writes before turning the bus around for reads
system.mem_ctrls.wrPerTurnAround::total            27                       # Writes before turning the bus around for reads
system.mem_ctrls.totQLat                   4531917500                       # Total ticks spent queuing
system.mem_ctrls.totMemAccLat              7920042500                       # Total ticks spent from burst creation until serviced by the DRAM
system.mem_ctrls.totBusLat                  903500000                       # Total ticks spent in databus transfers
system.mem_ctrls.avgQLat                     25079.79                       # Average queueing delay per DRAM burst
system.mem_ctrls.avgBusLat                    5000.00                       # Average bus latency per DRAM burst
system.mem_ctrls.avgMemAccLat                43829.79                       # Average memory access latency per DRAM burst
system.mem_ctrls.avgRdBW                       757.49                       # Average DRAM read bandwidth in MiByte/s
system.mem_ctrls.avgWrBW                         1.81                       # Average achieved write bandwidth in MiByte/s
system.mem_ctrls.avgRdBWSys                    757.69                       # Average system read bandwidth in MiByte/s
system.mem_ctrls.avgWrBWSys                      1.87                       # Average system write bandwidth in MiByte/s
system.mem_ctrls.peakBW                      12800.00                       # Theoretical peak bandwidth in MiByte/s
system.mem_ctrls.busUtil                         5.93                       # Data bus utilization in percentage
system.mem_ctrls.busUtilRead                     5.92                       # Data bus utilization in percentage for reads
system.mem_ctrls.busUtilWrite                    0.01                       # Data bus utilization in percentage for writes
system.mem_ctrls.avgRdQLen                       1.29                       # Average read queue length when enqueuing
system.mem_ctrls.avgWrQLen                      25.51                       # Average write queue length when enqueuing
system.mem_ctrls.readRowHits                    84673                       # Number of row buffer hits during reads
system.mem_ctrls.writeRowHits                     371                       # Number of row buffer hits during writes
system.mem_ctrls.readRowHitRate                 46.86                       # Row buffer hit rate for reads
system.mem_ctrls.writeRowHitRate                83.18                       # Row buffer hit rate for writes
system.mem_ctrls.avgGap                      84259.41                       # Average gap between requests
system.mem_ctrls.pageHitRate                    46.95                       # Row buffer hit rate, read and write combined
system.mem_ctrls_0.actEnergy                341299140                       # Energy for activate commands per rank (pJ)
system.mem_ctrls_0.preEnergy                181397205                       # Energy for precharge commands per rank (pJ)
system.mem_ctrls_0.readEnergy               641586120                       # Energy for read commands per rank (pJ)
system.mem_ctrls_0.writeEnergy                 673380                       # Energy for write commands per rank (pJ)
system.mem_ctrls_0.refreshEnergy         1204694400.000000                       # Energy for refresh commands per rank (pJ)
system.mem_ctrls_0.actBackEnergy           1553553810                       # Energy for active background per rank (pJ)
system.mem_ctrls_0.preBackEnergy             24524160                       # Energy for precharge background per rank (pJ)
system.mem_ctrls_0.actPowerDownEnergy      5231731320                       # Energy for active power-down per rank (pJ)
system.mem_ctrls_0.prePowerDownEnergy       124212000                       # Energy for precharge power-down per rank (pJ)
system.mem_ctrls_0.selfRefreshEnergy                0                       # Energy for self refresh per rank (pJ)
system.mem_ctrls_0.totalEnergy             9303671535                       # Total energy per rank (pJ)
system.mem_ctrls_0.averagePower            609.383758                       # Core power per rank (mW)
system.mem_ctrls_0.totalIdleTime          11797212000                       # Total Idle time Per DRAM Rank
system.mem_ctrls_0.memoryStateTime::IDLE      9514000                       # Time in different power states
system.mem_ctrls_0.memoryStateTime::REF     509600000                       # Time in different power states
system.mem_ctrls_0.memoryStateTime::SREF            0                       # Time in different power states
system.mem_ctrls_0.memoryStateTime::PRE_PDN    323473750                       # Time in different power states
system.mem_ctrls_0.memoryStateTime::ACT    2951003750                       # Time in different power states
system.mem_ctrls_0.memoryStateTime::ACT_PDN  11473752625                       # Time in different power states
system.mem_ctrls_1.actEnergy                344769180                       # Energy for activate commands per rank (pJ)
system.mem_ctrls_1.preEnergy                183260550                       # Energy for precharge commands per rank (pJ)
system.mem_ctrls_1.readEnergy               648611880                       # Energy for read commands per rank (pJ)
system.mem_ctrls_1.writeEnergy                1581660                       # Energy for write commands per rank (pJ)
system.mem_ctrls_1.refreshEnergy         1206538320.000000                       # Energy for refresh commands per rank (pJ)
system.mem_ctrls_1.actBackEnergy           1568748300                       # Energy for active background per rank (pJ)
system.mem_ctrls_1.preBackEnergy             24855360                       # Energy for precharge background per rank (pJ)
system.mem_ctrls_1.actPowerDownEnergy      5226015930                       # Energy for active power-down per rank (pJ)
system.mem_ctrls_1.prePowerDownEnergy       114801120                       # Energy for precharge power-down per rank (pJ)
system.mem_ctrls_1.selfRefreshEnergy          1790280                       # Energy for self refresh per rank (pJ)
system.mem_ctrls_1.totalEnergy             9320972580                       # Total energy per rank (pJ)
system.mem_ctrls_1.averagePower            610.516964                       # Core power per rank (mW)
system.mem_ctrls_1.totalIdleTime          11760557500                       # Total Idle time Per DRAM Rank
system.mem_ctrls_1.memoryStateTime::IDLE     10218000                       # Time in different power states
system.mem_ctrls_1.memoryStateTime::REF     510392000                       # Time in different power states
system.mem_ctrls_1.memoryStateTime::SREF      2855750                       # Time in different power states
system.mem_ctrls_1.memoryStateTime::PRE_PDN    298616000                       # Time in different power states
system.mem_ctrls_1.memoryStateTime::ACT    2985766000                       # Time in different power states
system.mem_ctrls_1.memoryStateTime::ACT_PDN  11459496375                       # Time in different power states
system.pwrStateResidencyTicks::UNDEFINED  15267344125                       # Cumulative time (in ticks) in various power states
system.cpu0.branchPred.lookups                1873979                       # Number of BP lookups
system.cpu0.branchPred.condPredicted          1873979                       # Number of conditional branches predicted
system.cpu0.branchPred.condIncorrect            78276                       # Number of conditional branches incorrect
system.cpu0.branchPred.BTBLookups             1475708                       # Number of BTB lookups
system.cpu0.branchPred.BTBHits                      0                       # Number of BTB hits
system.cpu0.branchPred.BTBCorrect                   0                       # Number of correct BTB predictions (this stat may not work properly.
system.cpu0.branchPred.BTBHitPct             0.000000                       # BTB Hit Percentage
system.cpu0.branchPred.usedRAS                  51468                       # Number of times the RAS was used to get a target.
system.cpu0.branchPred.RASInCorrect              8130                       # Number of incorrect RAS predictions.
system.cpu0.branchPred.indirectLookups        1475708                       # Number of indirect predictor lookups.
system.cpu0.branchPred.indirectHits            798844                       # Number of indirect target hits.
system.cpu0.branchPred.indirectMisses          676864                       # Number of indirect misses.
system.cpu0.branchPredindirectMispredicted        25489                       # Number of mispredicted indirect branches.
system.cpu_voltage_domain.voltage                   1                       # Voltage in Volts
system.cpu_clk_domain.clock                       500                       # Clock period in ticks
system.cpu0.dtb.walker.pwrStateResidencyTicks::UNDEFINED  15267344125                       # Cumulative time (in ticks) in various power states
system.cpu0.dtb.rdAccesses                     900271                       # TLB accesses on read requests
system.cpu0.dtb.wrAccesses                      65880                       # TLB accesses on write requests
system.cpu0.dtb.rdMisses                       186766                       # TLB misses on read requests
system.cpu0.dtb.wrMisses                         1011                       # TLB misses on write requests
system.cpu0.apic_clk_domain.clock                8000                       # Clock period in ticks
system.cpu0.interrupts.pwrStateResidencyTicks::UNDEFINED  15267344125                       # Cumulative time (in ticks) in various power states
system.cpu0.itb.walker.pwrStateResidencyTicks::UNDEFINED  15267344125                       # Cumulative time (in ticks) in various power states
system.cpu0.itb.rdAccesses                          0                       # TLB accesses on read requests
system.cpu0.itb.wrAccesses                    1568622                       # TLB accesses on write requests
system.cpu0.itb.rdMisses                            0                       # TLB misses on read requests
system.cpu0.itb.wrMisses                         6697                       # TLB misses on write requests
system.cpu0.workload.numSyscalls                    0                       # Number of system calls
system.cpu0.pwrStateResidencyTicks::ON    15267344125                       # Cumulative time (in ticks) in various power states
system.cpu0.numCycles                        30534688                       # number of cpu cycles simulated
system.cpu0.numWorkItemsStarted                     0                       # number of work items this cpu started
system.cpu0.numWorkItemsCompleted                   0                       # number of work items this cpu completed
system.cpu0.fetch.icacheStallCycles           1602718                       # Number of cycles fetch is stalled on an Icache miss
system.cpu0.fetch.Insts                       5467045                       # Number of instructions fetch has processed
system.cpu0.fetch.Branches                    1873979                       # Number of branches that fetch encountered
system.cpu0.fetch.predictedBranches            850312                       # Number of branches that fetch has predicted taken
system.cpu0.fetch.Cycles                     28741465                       # Number of cycles fetch has run and was not squashing or blocked
system.cpu0.fetch.SquashCycles                 160568                       # Number of cycles fetch has spent squashing
system.cpu0.fetch.TlbCycles                      2439                       # Number of cycles fetch has spent waiting for tlb
system.cpu0.fetch.MiscStallCycles                1459                       # Number of cycles fetch has spent waiting on interrupts, or bad addresses, or out of MSHRs
system.cpu0.fetch.PendingTrapStallCycles        55713                       # Number of stall cycles due to pending traps
system.cpu0.fetch.CacheLines                  1561925                       # Number of cache lines fetched
system.cpu0.fetch.IcacheSquashes                 9604                       # Number of outstanding Icache misses that were squashed
system.cpu0.fetch.ItlbSquashes                      8                       # Number of outstanding ITLB misses that were squashed
system.cpu0.fetch.rateDist::samples          30484078                       # Number of instructions fetched each cycle (Total)
system.cpu0.fetch.rateDist::mean             0.360088                       # Number of instructions fetched each cycle (Total)
system.cpu0.fetch.rateDist::stdev            1.505392                       # Number of instructions fetched each cycle (Total)
system.cpu0.fetch.rateDist::underflows              0      0.00%      0.00% # Number of instructions fetched each cycle (Total)
system.cpu0.fetch.rateDist::0                28357645     93.02%     93.02% # Number of instructions fetched each cycle (Total)
system.cpu0.fetch.rateDist::1                   28062      0.09%     93.12% # Number of instructions fetched each cycle (Total)
system.cpu0.fetch.rateDist::2                  774264      2.54%     95.66% # Number of instructions fetched each cycle (Total)
system.cpu0.fetch.rateDist::3                   31823      0.10%     95.76% # Number of instructions fetched each cycle (Total)
system.cpu0.fetch.rateDist::4                  151290      0.50%     96.26% # Number of instructions fetched each cycle (Total)
system.cpu0.fetch.rateDist::5                   67249      0.22%     96.48% # Number of instructions fetched each cycle (Total)
system.cpu0.fetch.rateDist::6                  100037      0.33%     96.81% # Number of instructions fetched each cycle (Total)
system.cpu0.fetch.rateDist::7                   26413      0.09%     96.89% # Number of instructions fetched each cycle (Total)
system.cpu0.fetch.rateDist::8                  947295      3.11%    100.00% # Number of instructions fetched each cycle (Total)
system.cpu0.fetch.rateDist::overflows               0      0.00%    100.00% # Number of instructions fetched each cycle (Total)
system.cpu0.fetch.rateDist::min_value               0                       # Number of instructions fetched each cycle (Total)
system.cpu0.fetch.rateDist::max_value               8                       # Number of instructions fetched each cycle (Total)
system.cpu0.fetch.rateDist::total            30484078                       # Number of instructions fetched each cycle (Total)
system.cpu0.fetch.branchRate                 0.061372                       # Number of branch fetches per cycle
system.cpu0.fetch.rate                       0.179044                       # Number of inst fetches per cycle
system.cpu0.decode.IdleCycles                  801595                       # Number of cycles decode is idle
system.cpu0.decode.BlockedCycles             28197690                       # Number of cycles decode is blocked
system.cpu0.decode.RunCycles                  1035471                       # Number of cycles decode is running
system.cpu0.decode.UnblockCycles               369038                       # Number of cycles decode is unblocking
system.cpu0.decode.SquashCycles                 80284                       # Number of cycles decode is squashing
system.cpu0.decode.DecodedInsts               9112233                       # Number of instructions handled by decode
system.cpu0.rename.SquashCycles                 80284                       # Number of cycles rename is squashing
system.cpu0.rename.IdleCycles                  918872                       # Number of cycles rename is idle
system.cpu0.rename.BlockCycles               26795160                       # Number of cycles rename is blocking
system.cpu0.rename.serializeStallCycles         20872                       # count of cycles rename stalled for serializing inst
system.cpu0.rename.RunCycles                  1201258                       # Number of cycles rename is running
system.cpu0.rename.UnblockCycles              1467632                       # Number of cycles rename is unblocking
system.cpu0.rename.RenamedInsts               8753278                       # Number of instructions processed by rename
system.cpu0.rename.ROBFullEvents                64022                       # Number of times rename has blocked due to ROB full
system.cpu0.rename.IQFullEvents               1202161                       # Number of times rename has blocked due to IQ full
system.cpu0.rename.LQFullEvents                200627                       # Number of times rename has blocked due to LQ full
system.cpu0.rename.SQFullEvents                  1794                       # Number of times rename has blocked due to SQ full
system.cpu0.rename.RenamedOperands           10430189                       # Number of destination operands rename has renamed
system.cpu0.rename.RenameLookups             24338337                       # Number of register rename lookups that rename has made
system.cpu0.rename.int_rename_lookups        11495604                       # Number of integer rename lookups
system.cpu0.rename.fp_rename_lookups            42115                       # Number of floating rename lookups
system.cpu0.rename.CommittedMaps              3799751                       # Number of HB maps that are committed
system.cpu0.rename.UndoneMaps                 6630312                       # Number of HB maps that are undone due to squashing
system.cpu0.rename.serializingInsts               330                       # count of serializing insts renamed
system.cpu0.rename.tempSerializingInsts           388                       # count of temporary serializing insts renamed
system.cpu0.rename.skidInsts                  2322420                       # count of insts added to the skid buffer
system.cpu0.memDep0.insertedLoads             1573632                       # Number of loads inserted to the mem dependence unit.
system.cpu0.memDep0.insertedStores              96049                       # Number of stores inserted to the mem dependence unit.
system.cpu0.memDep0.conflictingLoads             6132                       # Number of conflicting loads.
system.cpu0.memDep0.conflictingStores            6104                       # Number of conflicting stores.
system.cpu0.iq.iqInstsAdded                   8311100                       # Number of instructions added to the IQ (excludes non-spec)
system.cpu0.iq.iqNonSpecInstsAdded               5079                       # Number of non-speculative instructions added to the IQ
system.cpu0.iq.iqInstsIssued                  5982603                       # Number of instructions issued
system.cpu0.iq.iqSquashedInstsIssued             7110                       # Number of squashed instructions issued
system.cpu0.iq.iqSquashedInstsExamined        5149911                       # Number of squashed instructions iterated over during squash; mainly for profiling
system.cpu0.iq.iqSquashedOperandsExamined     10748164                       # Number of squashed operands that are examined and possibly removed from graph
system.cpu0.iq.iqSquashedNonSpecRemoved          5079                       # Number of squashed non-spec instructions that were removed
system.cpu0.iq.issued_per_cycle::samples     30484078                       # Number of insts issued each cycle
system.cpu0.iq.issued_per_cycle::mean        0.196253                       # Number of insts issued each cycle
system.cpu0.iq.issued_per_cycle::stdev       0.805856                       # Number of insts issued each cycle
system.cpu0.iq.issued_per_cycle::underflows            0      0.00%      0.00% # Number of insts issued each cycle
system.cpu0.iq.issued_per_cycle::0           28041110     91.99%     91.99% # Number of insts issued each cycle
system.cpu0.iq.issued_per_cycle::1             960286      3.15%     95.14% # Number of insts issued each cycle
system.cpu0.iq.issued_per_cycle::2             517609      1.70%     96.83% # Number of insts issued each cycle
system.cpu0.iq.issued_per_cycle::3             351907      1.15%     97.99% # Number of insts issued each cycle
system.cpu0.iq.issued_per_cycle::4             358484      1.18%     99.16% # Number of insts issued each cycle
system.cpu0.iq.issued_per_cycle::5             109936      0.36%     99.53% # Number of insts issued each cycle
system.cpu0.iq.issued_per_cycle::6              88957      0.29%     99.82% # Number of insts issued each cycle
system.cpu0.iq.issued_per_cycle::7              32292      0.11%     99.92% # Number of insts issued each cycle
system.cpu0.iq.issued_per_cycle::8              23497      0.08%    100.00% # Number of insts issued each cycle
system.cpu0.iq.issued_per_cycle::overflows            0      0.00%    100.00% # Number of insts issued each cycle
system.cpu0.iq.issued_per_cycle::min_value            0                       # Number of insts issued each cycle
system.cpu0.iq.issued_per_cycle::max_value            8                       # Number of insts issued each cycle
system.cpu0.iq.issued_per_cycle::total       30484078                       # Number of insts issued each cycle
system.cpu0.iq.fu_full::No_OpClass                  0      0.00%      0.00% # attempts to use FU when none available
system.cpu0.iq.fu_full::IntAlu                  13021     70.51%     70.51% # attempts to use FU when none available
system.cpu0.iq.fu_full::IntMult                     0      0.00%     70.51% # attempts to use FU when none available
system.cpu0.iq.fu_full::IntDiv                      0      0.00%     70.51% # attempts to use FU when none available
system.cpu0.iq.fu_full::FloatAdd                 1291      6.99%     77.50% # attempts to use FU when none available
system.cpu0.iq.fu_full::FloatCmp                    0      0.00%     77.50% # attempts to use FU when none available
system.cpu0.iq.fu_full::FloatCvt                    0      0.00%     77.50% # attempts to use FU when none available
system.cpu0.iq.fu_full::FloatMult                   0      0.00%     77.50% # attempts to use FU when none available
system.cpu0.iq.fu_full::FloatMultAcc                0      0.00%     77.50% # attempts to use FU when none available
system.cpu0.iq.fu_full::FloatDiv                    0      0.00%     77.50% # attempts to use FU when none available
system.cpu0.iq.fu_full::FloatMisc                   0      0.00%     77.50% # attempts to use FU when none available
system.cpu0.iq.fu_full::FloatSqrt                   0      0.00%     77.50% # attempts to use FU when none available
system.cpu0.iq.fu_full::SimdAdd                     0      0.00%     77.50% # attempts to use FU when none available
system.cpu0.iq.fu_full::SimdAddAcc                  0      0.00%     77.50% # attempts to use FU when none available
system.cpu0.iq.fu_full::SimdAlu                     0      0.00%     77.50% # attempts to use FU when none available
system.cpu0.iq.fu_full::SimdCmp                     0      0.00%     77.50% # attempts to use FU when none available
system.cpu0.iq.fu_full::SimdCvt                     0      0.00%     77.50% # attempts to use FU when none available
system.cpu0.iq.fu_full::SimdMisc                    0      0.00%     77.50% # attempts to use FU when none available
system.cpu0.iq.fu_full::SimdMult                    0      0.00%     77.50% # attempts to use FU when none available
system.cpu0.iq.fu_full::SimdMultAcc                 0      0.00%     77.50% # attempts to use FU when none available
system.cpu0.iq.fu_full::SimdShift                   0      0.00%     77.50% # attempts to use FU when none available
system.cpu0.iq.fu_full::SimdShiftAcc                0      0.00%     77.50% # attempts to use FU when none available
system.cpu0.iq.fu_full::SimdSqrt                    0      0.00%     77.50% # attempts to use FU when none available
system.cpu0.iq.fu_full::SimdFloatAdd                0      0.00%     77.50% # attempts to use FU when none available
system.cpu0.iq.fu_full::SimdFloatAlu                0      0.00%     77.50% # attempts to use FU when none available
system.cpu0.iq.fu_full::SimdFloatCmp                0      0.00%     77.50% # attempts to use FU when none available
system.cpu0.iq.fu_full::SimdFloatCvt                0      0.00%     77.50% # attempts to use FU when none available
system.cpu0.iq.fu_full::SimdFloatDiv                0      0.00%     77.50% # attempts to use FU when none available
system.cpu0.iq.fu_full::SimdFloatMisc               0      0.00%     77.50% # attempts to use FU when none available
system.cpu0.iq.fu_full::SimdFloatMult               0      0.00%     77.50% # attempts to use FU when none available
system.cpu0.iq.fu_full::SimdFloatMultAcc            0      0.00%     77.50% # attempts to use FU when none available
system.cpu0.iq.fu_full::SimdFloatSqrt               0      0.00%     77.50% # attempts to use FU when none available
system.cpu0.iq.fu_full::MemRead                  3726     20.18%     97.68% # attempts to use FU when none available
system.cpu0.iq.fu_full::MemWrite                  322      1.74%     99.43% # attempts to use FU when none available
system.cpu0.iq.fu_full::FloatMemRead               96      0.52%     99.95% # attempts to use FU when none available
system.cpu0.iq.fu_full::FloatMemWrite              10      0.05%    100.00% # attempts to use FU when none available
system.cpu0.iq.fu_full::IprAccess                   0      0.00%    100.00% # attempts to use FU when none available
system.cpu0.iq.fu_full::InstPrefetch                0      0.00%    100.00% # attempts to use FU when none available
system.cpu0.iq.FU_type_0::No_OpClass            21978      0.37%      0.37% # Type of FU issued
system.cpu0.iq.FU_type_0::IntAlu              4916611     82.18%     82.55% # Type of FU issued
system.cpu0.iq.FU_type_0::IntMult                1440      0.02%     82.57% # Type of FU issued
system.cpu0.iq.FU_type_0::IntDiv                12009      0.20%     82.77% # Type of FU issued
system.cpu0.iq.FU_type_0::FloatAdd              16329      0.27%     83.05% # Type of FU issued
system.cpu0.iq.FU_type_0::FloatCmp                  0      0.00%     83.05% # Type of FU issued
system.cpu0.iq.FU_type_0::FloatCvt                  0      0.00%     83.05% # Type of FU issued
system.cpu0.iq.FU_type_0::FloatMult                 0      0.00%     83.05% # Type of FU issued
system.cpu0.iq.FU_type_0::FloatMultAcc              0      0.00%     83.05% # Type of FU issued
system.cpu0.iq.FU_type_0::FloatDiv                  0      0.00%     83.05% # Type of FU issued
system.cpu0.iq.FU_type_0::FloatMisc                 0      0.00%     83.05% # Type of FU issued
system.cpu0.iq.FU_type_0::FloatSqrt                 0      0.00%     83.05% # Type of FU issued
system.cpu0.iq.FU_type_0::SimdAdd                   0      0.00%     83.05% # Type of FU issued
system.cpu0.iq.FU_type_0::SimdAddAcc                0      0.00%     83.05% # Type of FU issued
system.cpu0.iq.FU_type_0::SimdAlu                   0      0.00%     83.05% # Type of FU issued
system.cpu0.iq.FU_type_0::SimdCmp                   0      0.00%     83.05% # Type of FU issued
system.cpu0.iq.FU_type_0::SimdCvt                   0      0.00%     83.05% # Type of FU issued
system.cpu0.iq.FU_type_0::SimdMisc                  0      0.00%     83.05% # Type of FU issued
system.cpu0.iq.FU_type_0::SimdMult                  0      0.00%     83.05% # Type of FU issued
system.cpu0.iq.FU_type_0::SimdMultAcc               0      0.00%     83.05% # Type of FU issued
system.cpu0.iq.FU_type_0::SimdShift                 0      0.00%     83.05% # Type of FU issued
system.cpu0.iq.FU_type_0::SimdShiftAcc              0      0.00%     83.05% # Type of FU issued
system.cpu0.iq.FU_type_0::SimdSqrt                  0      0.00%     83.05% # Type of FU issued
system.cpu0.iq.FU_type_0::SimdFloatAdd              0      0.00%     83.05% # Type of FU issued
system.cpu0.iq.FU_type_0::SimdFloatAlu              0      0.00%     83.05% # Type of FU issued
system.cpu0.iq.FU_type_0::SimdFloatCmp              0      0.00%     83.05% # Type of FU issued
system.cpu0.iq.FU_type_0::SimdFloatCvt              0      0.00%     83.05% # Type of FU issued
system.cpu0.iq.FU_type_0::SimdFloatDiv              0      0.00%     83.05% # Type of FU issued
system.cpu0.iq.FU_type_0::SimdFloatMisc             0      0.00%     83.05% # Type of FU issued
system.cpu0.iq.FU_type_0::SimdFloatMult             0      0.00%     83.05% # Type of FU issued
system.cpu0.iq.FU_type_0::SimdFloatMultAcc            0      0.00%     83.05% # Type of FU issued
system.cpu0.iq.FU_type_0::SimdFloatSqrt             0      0.00%     83.05% # Type of FU issued
system.cpu0.iq.FU_type_0::MemRead              940608     15.72%     98.77% # Type of FU issued
system.cpu0.iq.FU_type_0::MemWrite              70766      1.18%     99.95% # Type of FU issued
system.cpu0.iq.FU_type_0::FloatMemRead           2827      0.05%    100.00% # Type of FU issued
system.cpu0.iq.FU_type_0::FloatMemWrite            35      0.00%    100.00% # Type of FU issued
system.cpu0.iq.FU_type_0::IprAccess                 0      0.00%    100.00% # Type of FU issued
system.cpu0.iq.FU_type_0::InstPrefetch              0      0.00%    100.00% # Type of FU issued
system.cpu0.iq.FU_type_0::total               5982603                       # Type of FU issued
system.cpu0.iq.rate                          0.195928                       # Inst issue rate
system.cpu0.iq.fu_busy_cnt                      18466                       # FU busy when requested
system.cpu0.iq.fu_busy_rate                  0.003087                       # FU busy rate (busy events/executed inst)
system.cpu0.iq.int_inst_queue_reads          42434867                       # Number of integer instruction queue reads
system.cpu0.iq.int_inst_queue_writes         13432133                       # Number of integer instruction queue writes
system.cpu0.iq.int_inst_queue_wakeup_accesses      5735241                       # Number of integer instruction queue wakeup accesses
system.cpu0.iq.fp_inst_queue_reads              39993                       # Number of floating instruction queue reads
system.cpu0.iq.fp_inst_queue_writes             33958                       # Number of floating instruction queue writes
system.cpu0.iq.fp_inst_queue_wakeup_accesses        17826                       # Number of floating instruction queue wakeup accesses
system.cpu0.iq.vec_inst_queue_reads                 0                       # Number of vector instruction queue reads
system.cpu0.iq.vec_inst_queue_writes                0                       # Number of vector instruction queue writes
system.cpu0.iq.vec_inst_queue_wakeup_accesses            0                       # Number of vector instruction queue wakeup accesses
system.cpu0.iq.int_alu_accesses               5958498                       # Number of integer alu accesses
system.cpu0.iq.fp_alu_accesses                  20593                       # Number of floating point alu accesses
system.cpu0.iq.vec_alu_accesses                     0                       # Number of vector alu accesses
system.cpu0.iew.lsq.thread0.forwLoads            5838                       # Number of loads that had data forwarded from stores
system.cpu0.iew.lsq.thread0.invAddrLoads            0                       # Number of loads ignored due to an invalid address
system.cpu0.iew.lsq.thread0.squashedLoads       980741                       # Number of loads squashed
system.cpu0.iew.lsq.thread0.ignoredResponses          168                       # Number of memory responses ignored because the instruction is squashed
system.cpu0.iew.lsq.thread0.memOrderViolation            1                       # Number of memory ordering violations
system.cpu0.iew.lsq.thread0.squashedStores        61517                       # Number of stores squashed
system.cpu0.iew.lsq.thread0.invAddrSwpfs            0                       # Number of software prefetches ignored due to an invalid address
system.cpu0.iew.lsq.thread0.blockedLoads            0                       # Number of blocked loads due to partial load-store forwarding
system.cpu0.iew.lsq.thread0.rescheduledLoads           46                       # Number of loads that were rescheduled
system.cpu0.iew.lsq.thread0.cacheBlocked         1934                       # Number of times an access to memory failed due to the cache being blocked
system.cpu0.iew.iewIdleCycles                       0                       # Number of cycles IEW is idle
system.cpu0.iew.iewSquashCycles                 80284                       # Number of cycles IEW is squashing
system.cpu0.iew.iewBlockCycles               24707116                       # Number of cycles IEW is blocking
system.cpu0.iew.iewUnblockCycles               287063                       # Number of cycles IEW is unblocking
system.cpu0.iew.iewDispatchedInsts            8316179                       # Number of instructions dispatched to IQ
system.cpu0.iew.iewDispSquashedInsts             4934                       # Number of squashed instructions skipped by dispatch
system.cpu0.iew.iewDispLoadInsts              1573632                       # Number of dispatched load instructions
system.cpu0.iew.iewDispStoreInsts               96049                       # Number of dispatched store instructions
system.cpu0.iew.iewDispNonSpecInsts              1894                       # Number of dispatched non-speculative instructions
system.cpu0.iew.iewIQFullEvents                 21675                       # Number of times the IQ has become full, causing a stall
system.cpu0.iew.iewLSQFullEvents                52974                       # Number of times the LSQ has become full, causing a stall
system.cpu0.iew.memOrderViolationEvents             1                       # Number of memory order violations
system.cpu0.iew.predictedTakenIncorrect         42192                       # Number of branches that were predicted taken incorrectly
system.cpu0.iew.predictedNotTakenIncorrect        46993                       # Number of branches that were predicted not taken incorrectly
system.cpu0.iew.branchMispredicts               89185                       # Number of branch mispredicts detected at execute
system.cpu0.iew.iewExecutedInsts              5872250                       # Number of executed instructions
system.cpu0.iew.iewExecLoadInsts               899946                       # Number of load instructions executed
system.cpu0.iew.iewExecSquashedInsts           110353                       # Number of squashed instructions skipped in execute
system.cpu0.iew.exec_swp                            0                       # number of swp insts executed
system.cpu0.iew.exec_nop                            0                       # number of nop insts executed
system.cpu0.iew.exec_refs                      965805                       # number of memory reference insts executed
system.cpu0.iew.exec_branches                  706709                       # Number of branches executed
system.cpu0.iew.exec_stores                     65859                       # Number of stores executed
system.cpu0.iew.exec_rate                    0.192314                       # Inst execution rate
system.cpu0.iew.wb_sent                       5772963                       # cumulative count of insts sent to commit
system.cpu0.iew.wb_count                      5753067                       # cumulative count of insts written-back
system.cpu0.iew.wb_producers                  4244205                       # num instructions producing a value
system.cpu0.iew.wb_consumers                  6742681                       # num instructions consuming a value
system.cpu0.iew.wb_rate                      0.188411                       # insts written-back per cycle
system.cpu0.iew.wb_fanout                    0.629454                       # average fanout of values written-back
system.cpu0.commit.commitSquashedInsts        5150622                       # The number of squashed insts skipped by commit
system.cpu0.commit.branchMispredicts            80284                       # The number of times a branch was mispredicted
system.cpu0.commit.committed_per_cycle::samples     29755332                       # Number of insts commited each cycle
system.cpu0.commit.committed_per_cycle::mean     0.106407                       # Number of insts commited each cycle
system.cpu0.commit.committed_per_cycle::stdev     0.605597                       # Number of insts commited each cycle
system.cpu0.commit.committed_per_cycle::underflows            0      0.00%      0.00% # Number of insts commited each cycle
system.cpu0.commit.committed_per_cycle::0     28397789     95.44%     95.44% # Number of insts commited each cycle
system.cpu0.commit.committed_per_cycle::1       620971      2.09%     97.52% # Number of insts commited each cycle
system.cpu0.commit.committed_per_cycle::2       150505      0.51%     98.03% # Number of insts commited each cycle
system.cpu0.commit.committed_per_cycle::3       403616      1.36%     99.39% # Number of insts commited each cycle
system.cpu0.commit.committed_per_cycle::4        70759      0.24%     99.62% # Number of insts commited each cycle
system.cpu0.commit.committed_per_cycle::5        41265      0.14%     99.76% # Number of insts commited each cycle
system.cpu0.commit.committed_per_cycle::6         7277      0.02%     99.79% # Number of insts commited each cycle
system.cpu0.commit.committed_per_cycle::7         4886      0.02%     99.80% # Number of insts commited each cycle
system.cpu0.commit.committed_per_cycle::8        58264      0.20%    100.00% # Number of insts commited each cycle
system.cpu0.commit.committed_per_cycle::overflows            0      0.00%    100.00% # Number of insts commited each cycle
system.cpu0.commit.committed_per_cycle::min_value            0                       # Number of insts commited each cycle
system.cpu0.commit.committed_per_cycle::max_value            8                       # Number of insts commited each cycle
system.cpu0.commit.committed_per_cycle::total     29755332                       # Number of insts commited each cycle
system.cpu0.commit.committedInsts             1585066                       # Number of instructions committed
system.cpu0.commit.committedOps               3166166                       # Number of ops (including micro ops) committed
system.cpu0.commit.swp_count                        0                       # Number of s/w prefetches committed
system.cpu0.commit.refs                        627401                       # Number of memory references committed
system.cpu0.commit.loads                       592869                       # Number of loads committed
system.cpu0.commit.membars                          0                       # Number of memory barriers committed
system.cpu0.commit.branches                    566418                       # Number of branches committed
system.cpu0.commit.vec_insts                        0                       # Number of committed Vector instructions.
system.cpu0.commit.fp_insts                     13826                       # Number of committed floating point instructions.
system.cpu0.commit.int_insts                  3152157                       # Number of committed integer instructions.
system.cpu0.commit.function_calls                6100                       # Number of function calls committed.
system.cpu0.commit.op_class_0::No_OpClass         4195      0.13%      0.13% # Class of committed instruction
system.cpu0.commit.op_class_0::IntAlu         2512314     79.35%     79.48% # Class of committed instruction
system.cpu0.commit.op_class_0::IntMult            244      0.01%     79.49% # Class of committed instruction
system.cpu0.commit.op_class_0::IntDiv           10192      0.32%     79.81% # Class of committed instruction
system.cpu0.commit.op_class_0::FloatAdd         11820      0.37%     80.18% # Class of committed instruction
system.cpu0.commit.op_class_0::FloatCmp             0      0.00%     80.18% # Class of committed instruction
system.cpu0.commit.op_class_0::FloatCvt             0      0.00%     80.18% # Class of committed instruction
system.cpu0.commit.op_class_0::FloatMult            0      0.00%     80.18% # Class of committed instruction
system.cpu0.commit.op_class_0::FloatMultAcc            0      0.00%     80.18% # Class of committed instruction
system.cpu0.commit.op_class_0::FloatDiv             0      0.00%     80.18% # Class of committed instruction
system.cpu0.commit.op_class_0::FloatMisc            0      0.00%     80.18% # Class of committed instruction
system.cpu0.commit.op_class_0::FloatSqrt            0      0.00%     80.18% # Class of committed instruction
system.cpu0.commit.op_class_0::SimdAdd              0      0.00%     80.18% # Class of committed instruction
system.cpu0.commit.op_class_0::SimdAddAcc            0      0.00%     80.18% # Class of committed instruction
system.cpu0.commit.op_class_0::SimdAlu              0      0.00%     80.18% # Class of committed instruction
system.cpu0.commit.op_class_0::SimdCmp              0      0.00%     80.18% # Class of committed instruction
system.cpu0.commit.op_class_0::SimdCvt              0      0.00%     80.18% # Class of committed instruction
system.cpu0.commit.op_class_0::SimdMisc             0      0.00%     80.18% # Class of committed instruction
system.cpu0.commit.op_class_0::SimdMult             0      0.00%     80.18% # Class of committed instruction
system.cpu0.commit.op_class_0::SimdMultAcc            0      0.00%     80.18% # Class of committed instruction
system.cpu0.commit.op_class_0::SimdShift            0      0.00%     80.18% # Class of committed instruction
system.cpu0.commit.op_class_0::SimdShiftAcc            0      0.00%     80.18% # Class of committed instruction
system.cpu0.commit.op_class_0::SimdSqrt             0      0.00%     80.18% # Class of committed instruction
system.cpu0.commit.op_class_0::SimdFloatAdd            0      0.00%     80.18% # Class of committed instruction
system.cpu0.commit.op_class_0::SimdFloatAlu            0      0.00%     80.18% # Class of committed instruction
system.cpu0.commit.op_class_0::SimdFloatCmp            0      0.00%     80.18% # Class of committed instruction
system.cpu0.commit.op_class_0::SimdFloatCvt            0      0.00%     80.18% # Class of committed instruction
system.cpu0.commit.op_class_0::SimdFloatDiv            0      0.00%     80.18% # Class of committed instruction
system.cpu0.commit.op_class_0::SimdFloatMisc            0      0.00%     80.18% # Class of committed instruction
system.cpu0.commit.op_class_0::SimdFloatMult            0      0.00%     80.18% # Class of committed instruction
system.cpu0.commit.op_class_0::SimdFloatMultAcc            0      0.00%     80.18% # Class of committed instruction
system.cpu0.commit.op_class_0::SimdFloatSqrt            0      0.00%     80.18% # Class of committed instruction
system.cpu0.commit.op_class_0::MemRead         590863     18.66%     98.85% # Class of committed instruction
system.cpu0.commit.op_class_0::MemWrite         34532      1.09%     99.94% # Class of committed instruction
system.cpu0.commit.op_class_0::FloatMemRead         2006      0.06%    100.00% # Class of committed instruction
system.cpu0.commit.op_class_0::FloatMemWrite            0      0.00%    100.00% # Class of committed instruction
system.cpu0.commit.op_class_0::IprAccess            0      0.00%    100.00% # Class of committed instruction
system.cpu0.commit.op_class_0::InstPrefetch            0      0.00%    100.00% # Class of committed instruction
system.cpu0.commit.op_class_0::total          3166166                       # Class of committed instruction
system.cpu0.commit.bw_lim_events                58264                       # number cycles where commit BW limit reached
system.cpu0.rob.rob_reads                    38013856                       # The number of ROB reads
system.cpu0.rob.rob_writes                   17364259                       # The number of ROB writes
system.cpu0.timesIdled                            496                       # Number of times that the entire CPU went into an idle state and unscheduled itself
system.cpu0.idleCycles                          50610                       # Total number of cycles that the CPU has spent unscheduled due to idling
system.cpu0.committedInsts                    1585066                       # Number of Instructions Simulated
system.cpu0.committedOps                      3166166                       # Number of Ops (including micro ops) Simulated
system.cpu0.cpi                             19.263985                       # CPI: Cycles Per Instruction
system.cpu0.cpi_total                       19.263985                       # CPI: Total CPI of All Threads
system.cpu0.ipc                              0.051910                       # IPC: Instructions Per Cycle
system.cpu0.ipc_total                        0.051910                       # IPC: Total IPC of All Threads
system.cpu0.int_regfile_reads                 5910898                       # number of integer regfile reads
system.cpu0.int_regfile_writes                4988699                       # number of integer regfile writes
system.cpu0.fp_regfile_reads                    31420                       # number of floating regfile reads
system.cpu0.fp_regfile_writes                   15634                       # number of floating regfile writes
system.cpu0.cc_regfile_reads                  3717954                       # number of cc regfile reads
system.cpu0.cc_regfile_writes                 1592591                       # number of cc regfile writes
system.cpu0.misc_regfile_reads                3089537                       # number of misc regfile reads
system.cpu0.dcache.tags.pwrStateResidencyTicks::UNDEFINED  15267344125                       # Cumulative time (in ticks) in various power states
system.cpu0.dcache.tags.replacements           307995                       # number of replacements
system.cpu0.dcache.tags.tagsinuse                1024                       # Cycle average of tags in use
system.cpu0.dcache.tags.total_refs             384688                       # Total number of references to valid blocks.
system.cpu0.dcache.tags.sampled_refs           307995                       # Sample count of references to valid blocks.
system.cpu0.dcache.tags.avg_refs             1.249007                       # Average number of references to valid blocks.
system.cpu0.dcache.tags.warmup_cycle                0                       # Cycle when the warmup percentage was hit.
system.cpu0.dcache.tags.occ_blocks::cpu0.data         1024                       # Average occupied blocks per requestor
system.cpu0.dcache.tags.occ_percent::cpu0.data            1                       # Average percentage of cache occupancy
system.cpu0.dcache.tags.occ_percent::total            1                       # Average percentage of cache occupancy
system.cpu0.dcache.tags.occ_task_id_blocks::1024         1024                       # Occupied blocks per task id
system.cpu0.dcache.tags.age_task_id_blocks_1024::0          143                       # Occupied blocks per task id
system.cpu0.dcache.tags.age_task_id_blocks_1024::1          793                       # Occupied blocks per task id
system.cpu0.dcache.tags.age_task_id_blocks_1024::2           88                       # Occupied blocks per task id
system.cpu0.dcache.tags.occ_task_id_percent::1024            1                       # Percentage of cache occupancy per task id
system.cpu0.dcache.tags.tag_accesses          4001415                       # Number of tag accesses
system.cpu0.dcache.tags.data_accesses         4001415                       # Number of data accesses
system.cpu0.dcache.pwrStateResidencyTicks::UNDEFINED  15267344125                       # Cumulative time (in ticks) in various power states
system.cpu0.dcache.ReadReq_hits::cpu0.data       352139                       # number of ReadReq hits
system.cpu0.dcache.ReadReq_hits::total         352139                       # number of ReadReq hits
system.cpu0.dcache.WriteReq_hits::cpu0.data        33304                       # number of WriteReq hits
system.cpu0.dcache.WriteReq_hits::total         33304                       # number of WriteReq hits
system.cpu0.dcache.demand_hits::cpu0.data       385443                       # number of demand (read+write) hits
system.cpu0.dcache.demand_hits::total          385443                       # number of demand (read+write) hits
system.cpu0.dcache.overall_hits::cpu0.data       385443                       # number of overall hits
system.cpu0.dcache.overall_hits::total         385443                       # number of overall hits
system.cpu0.dcache.ReadReq_misses::cpu0.data       536684                       # number of ReadReq misses
system.cpu0.dcache.ReadReq_misses::total       536684                       # number of ReadReq misses
system.cpu0.dcache.WriteReq_misses::cpu0.data         1228                       # number of WriteReq misses
system.cpu0.dcache.WriteReq_misses::total         1228                       # number of WriteReq misses
system.cpu0.dcache.demand_misses::cpu0.data       537912                       # number of demand (read+write) misses
system.cpu0.dcache.demand_misses::total        537912                       # number of demand (read+write) misses
system.cpu0.dcache.overall_misses::cpu0.data       537912                       # number of overall misses
system.cpu0.dcache.overall_misses::total       537912                       # number of overall misses
system.cpu0.dcache.ReadReq_miss_latency::cpu0.data  34199691500                       # number of ReadReq miss cycles
system.cpu0.dcache.ReadReq_miss_latency::total  34199691500                       # number of ReadReq miss cycles
system.cpu0.dcache.WriteReq_miss_latency::cpu0.data     46514999                       # number of WriteReq miss cycles
system.cpu0.dcache.WriteReq_miss_latency::total     46514999                       # number of WriteReq miss cycles
system.cpu0.dcache.demand_miss_latency::cpu0.data  34246206499                       # number of demand (read+write) miss cycles
system.cpu0.dcache.demand_miss_latency::total  34246206499                       # number of demand (read+write) miss cycles
system.cpu0.dcache.overall_miss_latency::cpu0.data  34246206499                       # number of overall miss cycles
system.cpu0.dcache.overall_miss_latency::total  34246206499                       # number of overall miss cycles
system.cpu0.dcache.ReadReq_accesses::cpu0.data       888823                       # number of ReadReq accesses(hits+misses)
system.cpu0.dcache.ReadReq_accesses::total       888823                       # number of ReadReq accesses(hits+misses)
system.cpu0.dcache.WriteReq_accesses::cpu0.data        34532                       # number of WriteReq accesses(hits+misses)
system.cpu0.dcache.WriteReq_accesses::total        34532                       # number of WriteReq accesses(hits+misses)
system.cpu0.dcache.demand_accesses::cpu0.data       923355                       # number of demand (read+write) accesses
system.cpu0.dcache.demand_accesses::total       923355                       # number of demand (read+write) accesses
system.cpu0.dcache.overall_accesses::cpu0.data       923355                       # number of overall (read+write) accesses
system.cpu0.dcache.overall_accesses::total       923355                       # number of overall (read+write) accesses
system.cpu0.dcache.ReadReq_miss_rate::cpu0.data     0.603814                       # miss rate for ReadReq accesses
system.cpu0.dcache.ReadReq_miss_rate::total     0.603814                       # miss rate for ReadReq accesses
system.cpu0.dcache.WriteReq_miss_rate::cpu0.data     0.035561                       # miss rate for WriteReq accesses
system.cpu0.dcache.WriteReq_miss_rate::total     0.035561                       # miss rate for WriteReq accesses
system.cpu0.dcache.demand_miss_rate::cpu0.data     0.582563                       # miss rate for demand accesses
system.cpu0.dcache.demand_miss_rate::total     0.582563                       # miss rate for demand accesses
system.cpu0.dcache.overall_miss_rate::cpu0.data     0.582563                       # miss rate for overall accesses
system.cpu0.dcache.overall_miss_rate::total     0.582563                       # miss rate for overall accesses
system.cpu0.dcache.ReadReq_avg_miss_latency::cpu0.data 63724.075061                       # average ReadReq miss latency
system.cpu0.dcache.ReadReq_avg_miss_latency::total 63724.075061                       # average ReadReq miss latency
system.cpu0.dcache.WriteReq_avg_miss_latency::cpu0.data 37878.663681                       # average WriteReq miss latency
system.cpu0.dcache.WriteReq_avg_miss_latency::total 37878.663681                       # average WriteReq miss latency
system.cpu0.dcache.demand_avg_miss_latency::cpu0.data 63665.072538                       # average overall miss latency
system.cpu0.dcache.demand_avg_miss_latency::total 63665.072538                       # average overall miss latency
system.cpu0.dcache.overall_avg_miss_latency::cpu0.data 63665.072538                       # average overall miss latency
system.cpu0.dcache.overall_avg_miss_latency::total 63665.072538                       # average overall miss latency
[...]
system.l2.ReadSharedReq_hits::cpu0.data        126365                       # number of ReadSharedReq hits
system.l2.ReadSharedReq_hits::total            126365                       # number of ReadSharedReq hits
system.l2.demand_hits::cpu0.data               127248                       # number of demand (read+write) hits
system.l2.demand_hits::total                   127248                       # number of demand (read+write) hits
system.l2.overall_hits::cpu0.data              127248                       # number of overall hits
system.l2.overall_hits::total                  127248                       # number of overall hits
system.l2.ReadExReq_misses::cpu0.data             340                       # number of ReadExReq misses
system.l2.ReadExReq_misses::total                 340                       # number of ReadExReq misses
system.l2.ReadSharedReq_misses::cpu0.data       180409                       # number of ReadSharedReq misses
system.l2.ReadSharedReq_misses::total          180409                       # number of ReadSharedReq misses
system.l2.demand_misses::cpu0.data             180749                       # number of demand (read+write) misses
system.l2.demand_misses::total                 180749                       # number of demand (read+write) misses
system.l2.overall_misses::cpu0.data            180749                       # number of overall misses
system.l2.overall_misses::total                180749                       # number of overall misses
system.l2.ReadExReq_miss_latency::cpu0.data     33855500                       # number of ReadExReq miss cycles
system.l2.ReadExReq_miss_latency::total      33855500                       # number of ReadExReq miss cycles
system.l2.ReadSharedReq_miss_latency::cpu0.data  17210031000                       # number of ReadSharedReq miss cycles
system.l2.ReadSharedReq_miss_latency::total  17210031000                       # number of ReadSharedReq miss cycles
system.l2.demand_miss_latency::cpu0.data  17243886500                       # number of demand (read+write) miss cycles
system.l2.demand_miss_latency::total      17243886500                       # number of demand (read+write) miss cycles
system.l2.overall_miss_latency::cpu0.data  17243886500                       # number of overall miss cycles
system.l2.overall_miss_latency::total     17243886500                       # number of overall miss cycles
system.l2.WritebackDirty_accesses::writebacks         3351                       # number of WritebackDirty accesses(hits+misses)
system.l2.WritebackDirty_accesses::total         3351                       # number of WritebackDirty accesses(hits+misses)
system.l2.ReadExReq_accesses::cpu0.data          1223                       # number of ReadExReq accesses(hits+misses)
system.l2.ReadExReq_accesses::total              1223                       # number of ReadExReq accesses(hits+misses)
system.l2.ReadSharedReq_accesses::cpu0.data       306774                       # number of ReadSharedReq accesses(hits+misses)
system.l2.ReadSharedReq_accesses::total        306774                       # number of ReadSharedReq accesses(hits+misses)
system.l2.demand_accesses::cpu0.data           307997                       # number of demand (read+write) accesses
system.l2.demand_accesses::total               307997                       # number of demand (read+write) accesses
system.l2.overall_accesses::cpu0.data          307997                       # number of overall (read+write) accesses
system.l2.overall_accesses::total              307997                       # number of overall (read+write) accesses
system.l2.ReadExReq_miss_rate::cpu0.data     0.278005                       # miss rate for ReadExReq accesses
system.l2.ReadExReq_miss_rate::total         0.278005                       # miss rate for ReadExReq accesses
system.l2.ReadSharedReq_miss_rate::cpu0.data     0.588084                       # miss rate for ReadSharedReq accesses
system.l2.ReadSharedReq_miss_rate::total     0.588084                       # miss rate for ReadSharedReq accesses
system.l2.demand_miss_rate::cpu0.data        0.586853                       # miss rate for demand accesses
system.l2.demand_miss_rate::total            0.586853                       # miss rate for demand accesses
system.l2.overall_miss_rate::cpu0.data       0.586853                       # miss rate for overall accesses
system.l2.overall_miss_rate::total           0.586853                       # miss rate for overall accesses
system.l2.ReadExReq_avg_miss_latency::cpu0.data        99575                       # average ReadExReq miss latency
system.l2.ReadExReq_avg_miss_latency::total        99575                       # average ReadExReq miss latency
system.l2.ReadSharedReq_avg_miss_latency::cpu0.data 95394.525772                       # average ReadSharedReq miss latency
system.l2.ReadSharedReq_avg_miss_latency::total 95394.525772                       # average ReadSharedReq miss latency
system.l2.demand_avg_miss_latency::cpu0.data 95402.389501                       # average overall miss latency
system.l2.demand_avg_miss_latency::total 95402.389501                       # average overall miss latency
system.l2.overall_avg_miss_latency::cpu0.data 95402.389501                       # average overall miss latency
system.l2.overall_avg_miss_latency::total 95402.389501                       # average overall miss latency
system.l2.blocked_cycles::no_mshrs                  0                       # number of cycles access was blocked
system.l2.blocked_cycles::no_targets                0                       # number of cycles access was blocked
system.l2.blocked::no_mshrs                         0                       # number of cycles access was blocked
system.l2.blocked::no_targets                       0                       # number of cycles access was blocked
system.l2.avg_blocked_cycles::no_mshrs            nan                       # average number of cycles each access was blocked
system.l2.avg_blocked_cycles::no_targets          nan                       # average number of cycles each access was blocked
system.l2.writebacks::writebacks                  446                       # number of writebacks
system.l2.writebacks::total                       446                       # number of writebacks
system.l2.ReadExReq_mshr_misses::cpu0.data          340                       # number of ReadExReq MSHR misses
system.l2.ReadExReq_mshr_misses::total            340                       # number of ReadExReq MSHR misses
system.l2.ReadSharedReq_mshr_misses::cpu0.data       180409                       # number of ReadSharedReq MSHR misses
system.l2.ReadSharedReq_mshr_misses::total       180409                       # number of ReadSharedReq MSHR misses
system.l2.demand_mshr_misses::cpu0.data        180749                       # number of demand (read+write) MSHR misses
system.l2.demand_mshr_misses::total            180749                       # number of demand (read+write) MSHR misses
system.l2.overall_mshr_misses::cpu0.data       180749                       # number of overall MSHR misses
system.l2.overall_mshr_misses::total           180749                       # number of overall MSHR misses
system.l2.ReadExReq_mshr_miss_latency::cpu0.data     30455500                       # number of ReadExReq MSHR miss cycles
system.l2.ReadExReq_mshr_miss_latency::total     30455500                       # number of ReadExReq MSHR miss cycles
system.l2.ReadSharedReq_mshr_miss_latency::cpu0.data  15405961000                       # number of ReadSharedReq MSHR miss cycles
system.l2.ReadSharedReq_mshr_miss_latency::total  15405961000                       # number of ReadSharedReq MSHR miss cycles
system.l2.demand_mshr_miss_latency::cpu0.data  15436416500                       # number of demand (read+write) MSHR miss cycles
system.l2.demand_mshr_miss_latency::total  15436416500                       # number of demand (read+write) MSHR miss cycles
system.l2.overall_mshr_miss_latency::cpu0.data  15436416500                       # number of overall MSHR miss cycles
system.l2.overall_mshr_miss_latency::total  15436416500                       # number of overall MSHR miss cycles
system.l2.ReadExReq_mshr_miss_rate::cpu0.data     0.278005                       # mshr miss rate for ReadExReq accesses
system.l2.ReadExReq_mshr_miss_rate::total     0.278005                       # mshr miss rate for ReadExReq accesses
system.l2.ReadSharedReq_mshr_miss_rate::cpu0.data     0.588084                       # mshr miss rate for ReadSharedReq accesses
system.l2.ReadSharedReq_mshr_miss_rate::total     0.588084                       # mshr miss rate for ReadSharedReq accesses
system.l2.demand_mshr_miss_rate::cpu0.data     0.586853                       # mshr miss rate for demand accesses
system.l2.demand_mshr_miss_rate::total       0.586853                       # mshr miss rate for demand accesses
system.l2.overall_mshr_miss_rate::cpu0.data     0.586853                       # mshr miss rate for overall accesses
system.l2.overall_mshr_miss_rate::total      0.586853                       # mshr miss rate for overall accesses
system.l2.ReadExReq_avg_mshr_miss_latency::cpu0.data        89575                       # average ReadExReq mshr miss latency
system.l2.ReadExReq_avg_mshr_miss_latency::total        89575                       # average ReadExReq mshr miss latency
system.l2.ReadSharedReq_avg_mshr_miss_latency::cpu0.data 85394.636631                       # average ReadSharedReq mshr miss latency
system.l2.ReadSharedReq_avg_mshr_miss_latency::total 85394.636631                       # average ReadSharedReq mshr miss latency
system.l2.demand_avg_mshr_miss_latency::cpu0.data 85402.500152                       # average overall mshr miss latency
system.l2.demand_avg_mshr_miss_latency::total 85402.500152                       # average overall mshr miss latency
system.l2.overall_avg_mshr_miss_latency::cpu0.data 85402.500152                       # average overall mshr miss latency
system.l2.overall_avg_mshr_miss_latency::total 85402.500152                       # average overall mshr miss latency
system.membus.snoop_filter.tot_requests        361496                       # Total number of requests made to the snoop filter.
system.membus.snoop_filter.hit_single_requests       180747                       # Number of requests hitting in the snoop filter with a single holder of the requested data.
system.membus.snoop_filter.hit_multi_requests            0                       # Number of requests hitting in the snoop filter with multiple (>1) holders of the requested data.
system.membus.snoop_filter.tot_snoops               0                       # Total number of snoops made to the snoop filter.
system.membus.snoop_filter.hit_single_snoops            0                       # Number of snoops hitting in the snoop filter with a single holder of the requested data.
system.membus.snoop_filter.hit_multi_snoops            0                       # Number of snoops hitting in the snoop filter with multiple (>1) holders of the requested data.
system.membus.pwrStateResidencyTicks::UNDEFINED  15267344125                       # Cumulative time (in ticks) in various power states
system.membus.trans_dist::ReadResp             180407                       # Transaction distribution
system.membus.trans_dist::WritebackDirty          446                       # Transaction distribution
system.membus.trans_dist::CleanEvict           180301                       # Transaction distribution
system.membus.trans_dist::ReadExReq               340                       # Transaction distribution
system.membus.trans_dist::ReadExResp              340                       # Transaction distribution
system.membus.trans_dist::ReadSharedReq        180409                       # Transaction distribution
system.membus.pkt_count_system.l2.mem_side::system.mem_ctrls.port       542243                       # Packet count per connected master and slave (bytes)
system.membus.pkt_count_system.l2.mem_side::total       542243                       # Packet count per connected master and slave (bytes)
system.membus.pkt_count::total                 542243                       # Packet count per connected master and slave (bytes)
system.membus.pkt_size_system.l2.mem_side::system.mem_ctrls.port     11596352                       # Cumulative packet size per connected master and slave (bytes)
system.membus.pkt_size_system.l2.mem_side::total     11596352                       # Cumulative packet size per connected master and slave (bytes)
system.membus.pkt_size::total                11596352                       # Cumulative packet size per connected master and slave (bytes)
system.membus.snoops                                0                       # Total snoops (count)
system.membus.snoopTraffic                          0                       # Total snoop traffic (bytes)
system.membus.snoop_fanout::samples            180749                       # Request fanout histogram
system.membus.snoop_fanout::mean                    0                       # Request fanout histogram
system.membus.snoop_fanout::stdev                   0                       # Request fanout histogram
system.membus.snoop_fanout::underflows              0      0.00%      0.00% # Request fanout histogram
system.membus.snoop_fanout::0                  180749    100.00%    100.00% # Request fanout histogram
system.membus.snoop_fanout::1                       0      0.00%    100.00% # Request fanout histogram
system.membus.snoop_fanout::overflows               0      0.00%    100.00% # Request fanout histogram
system.membus.snoop_fanout::min_value               0                       # Request fanout histogram
system.membus.snoop_fanout::max_value               0                       # Request fanout histogram
system.membus.snoop_fanout::total              180749                       # Request fanout histogram
system.membus.reqLayer8.occupancy           424827000                       # Layer occupancy (ticks)
system.membus.reqLayer8.utilization               2.8                       # Layer utilization (%)
system.membus.respLayer1.occupancy          980010000                       # Layer occupancy (ticks)
system.membus.respLayer1.utilization              6.4                       # Layer utilization (%)
system.tol2bus.snoop_filter.tot_requests       615992                       # Total number of requests made to the snoop filter.
system.tol2bus.snoop_filter.hit_single_requests       307997                       # Number of requests hitting in the snoop filter with a single holder of the requested data.
system.tol2bus.snoop_filter.hit_multi_requests          399                       # Number of requests hitting in the snoop filter with multiple (>1) holders of the requested data.
system.tol2bus.snoop_filter.tot_snoops              0                       # Total number of snoops made to the snoop filter.
system.tol2bus.snoop_filter.hit_single_snoops            0                       # Number of snoops hitting in the snoop filter with a single holder of the requested data.
system.tol2bus.snoop_filter.hit_multi_snoops            0                       # Number of snoops hitting in the snoop filter with multiple (>1) holders of the requested data.
system.tol2bus.pwrStateResidencyTicks::UNDEFINED  15267344125                       # Cumulative time (in ticks) in various power states
system.tol2bus.trans_dist::ReadResp            306772                       # Transaction distribution
system.tol2bus.trans_dist::WritebackDirty         3797                       # Transaction distribution
system.tol2bus.trans_dist::CleanEvict          484945                       # Transaction distribution
system.tol2bus.trans_dist::ReadExReq             1223                       # Transaction distribution
system.tol2bus.trans_dist::ReadExResp            1223                       # Transaction distribution
system.tol2bus.trans_dist::ReadSharedReq       306774                       # Transaction distribution
system.tol2bus.pkt_count_system.cpu0.dcache.mem_side::system.l2.cpu_side       923987                       # Packet count per connected master and slave (bytes)
system.tol2bus.pkt_count::total                923987                       # Packet count per connected master and slave (bytes)
system.tol2bus.pkt_size_system.cpu0.dcache.mem_side::system.l2.cpu_side     19926144                       # Cumulative packet size per connected master and slave (bytes)
system.tol2bus.pkt_size::total               19926144                       # Cumulative packet size per connected master and slave (bytes)
system.tol2bus.snoops                          180747                       # Total snoops (count)
system.tol2bus.snoopTraffic                     28544                       # Total snoop traffic (bytes)
system.tol2bus.snoop_fanout::samples           488744                       # Request fanout histogram
system.tol2bus.snoop_fanout::mean            0.000820                       # Request fanout histogram
system.tol2bus.snoop_fanout::stdev           0.028632                       # Request fanout histogram
system.tol2bus.snoop_fanout::underflows             0      0.00%      0.00% # Request fanout histogram
system.tol2bus.snoop_fanout::0                 488343     99.92%     99.92% # Request fanout histogram
system.tol2bus.snoop_fanout::1                    401      0.08%    100.00% # Request fanout histogram
system.tol2bus.snoop_fanout::2                      0      0.00%    100.00% # Request fanout histogram
system.tol2bus.snoop_fanout::3                      0      0.00%    100.00% # Request fanout histogram
system.tol2bus.snoop_fanout::4                      0      0.00%    100.00% # Request fanout histogram
system.tol2bus.snoop_fanout::5                      0      0.00%    100.00% # Request fanout histogram
system.tol2bus.snoop_fanout::6                      0      0.00%    100.00% # Request fanout histogram
system.tol2bus.snoop_fanout::7                      0      0.00%    100.00% # Request fanout histogram
system.tol2bus.snoop_fanout::8                      0      0.00%    100.00% # Request fanout histogram
system.tol2bus.snoop_fanout::9                      0      0.00%    100.00% # Request fanout histogram
system.tol2bus.snoop_fanout::10                     0      0.00%    100.00% # Request fanout histogram
system.tol2bus.snoop_fanout::11                     0      0.00%    100.00% # Request fanout histogram
system.tol2bus.snoop_fanout::12                     0      0.00%    100.00% # Request fanout histogram
system.tol2bus.snoop_fanout::13                     0      0.00%    100.00% # Request fanout histogram
system.tol2bus.snoop_fanout::14                     0      0.00%    100.00% # Request fanout histogram
system.tol2bus.snoop_fanout::15                     0      0.00%    100.00% # Request fanout histogram
system.tol2bus.snoop_fanout::16                     0      0.00%    100.00% # Request fanout histogram
system.tol2bus.snoop_fanout::overflows              0      0.00%    100.00% # Request fanout histogram
system.tol2bus.snoop_fanout::min_value              0                       # Request fanout histogram
system.tol2bus.snoop_fanout::max_value              1                       # Request fanout histogram
system.tol2bus.snoop_fanout::total             488744                       # Request fanout histogram
system.tol2bus.reqLayer0.occupancy          311347000                       # Layer occupancy (ticks)
system.tol2bus.reqLayer0.utilization              2.0                       # Layer utilization (%)
system.tol2bus.respLayer1.occupancy         461992500                       # Layer occupancy (ticks)
system.tol2bus.respLayer1.utilization             3.0                       # Layer utilization (%)

---------- End Simulation Statistics   ----------
