
---------- Begin Simulation Statistics ----------
sim_seconds                                  0.015267                       # Number of seconds simulated
sim_ticks                                 15267344125                       # Number of ticks simulated
final_tick                               1465665036000                       # Number of ticks from beginning of simulation (restored from checkpoints and never reset)
sim_freq                                 1000000000000                       # Frequency of simulated ticks
host_inst_rate                               14728825                       # Simulator instruction rate (inst/s)
host_op_rate                                 26912391                       # Simulator op (including micro ops) rate (op/s)
host_tick_rate                               68565632                       # Simulator tick rate (ticks/s)
host_mem_usage                                2332076                       # Number of bytes of host memory used
host_seconds                                   222.67                       # Real time elapsed on the host
sim_insts                                  3279631651                       # Number of instructions simulated
sim_ops                                    5992517069                       # Number of ops (including micro ops) simulated
system.voltage_domain.voltage                       1                       # Voltage in Volts
system.clk_domain.clock                          1000                       # Clock period in ticks
system.mem_ctrls.pwrStateResidencyTicks::UNDEFINED  15267344125                       # Cumulative time (in ticks) in various power states
system.mem_ctrls.bytes_read::cpu0.data         910656                       # Number of bytes read from this memory
system.mem_ctrls.bytes_read::total             910656                       # Number of bytes read from this memory
system.mem_ctrls.bytes_written::writebacks       857792                       # Number of bytes written to this memory
system.mem_ctrls.bytes_written::total          857792                       # Number of bytes written to this memory
system.mem_ctrls.num_reads::cpu0.data           14229                       # Number of read requests responded to by this memory
system.mem_ctrls.num_reads::total               14229                       # Number of read requests responded to by this memory
system.mem_ctrls.num_writes::writebacks         13403                       # Number of write requests responded to by this memory
system.mem_ctrls.num_writes::total              13403                       # Number of write requests responded to by this memory
system.mem_ctrls.bw_read::cpu0.data          59647309                       # Total read bandwidth from this memory (bytes/s)
system.mem_ctrls.bw_read::total              59647309                       # Total read bandwidth from this memory (bytes/s)
system.mem_ctrls.bw_write::writebacks        56184756                       # Write bandwidth from this memory (bytes/s)
system.mem_ctrls.bw_write::total             56184756                       # Write bandwidth from this memory (bytes/s)
system.mem_ctrls.bw_total::writebacks        56184756                       # Total bandwidth to/from this memory (bytes/s)
system.mem_ctrls.bw_total::cpu0.data         59647309                       # Total bandwidth to/from this memory (bytes/s)
system.mem_ctrls.bw_total::total            115832065                       # Total bandwidth to/from this memory (bytes/s)
system.mem_ctrls.readReqs                       14229                       # Number of read requests accepted
system.mem_ctrls.writeReqs                      13403                       # Number of write requests accepted
system.mem_ctrls.readBursts                     14229                       # Number of DRAM read bursts, including those serviced by the write queue
system.mem_ctrls.writeBursts                    13403                       # Number of DRAM write bursts, including those merged in the write queue
system.mem_ctrls.bytesReadDRAM                 910656                       # Total number of bytes read from DRAM
system.mem_ctrls.bytesReadWrQ                       0                       # Total number of bytes read from write queue
system.mem_ctrls.bytesWritten                  858176                       # Total number of bytes written to DRAM
system.mem_ctrls.bytesReadSys                  910656                       # Total read bytes from the system interface side
system.mem_ctrls.bytesWrittenSys               857792                       # Total written bytes from the system interface side
system.mem_ctrls.servicedByWrQ                      0                       # Number of DRAM read bursts serviced by the write queue
system.mem_ctrls.mergedWrBursts                     0                       # Number of DRAM write bursts merged with an existing one
system.mem_ctrls.neitherReadNorWriteReqs            0                       # Number of requests that are neither read nor write
system.mem_ctrls.perBankRdBursts::0               896                       # Per bank write bursts
system.mem_ctrls.perBankRdBursts::1               896                       # Per bank write bursts
system.mem_ctrls.perBankRdBursts::2               896                       # Per bank write bursts
system.mem_ctrls.perBankRdBursts::3               900                       # Per bank write bursts
system.mem_ctrls.perBankRdBursts::4               882                       # Per bank write bursts
system.mem_ctrls.perBankRdBursts::5               782                       # Per bank write bursts
system.mem_ctrls.perBankRdBursts::6               769                       # Per bank write bursts
system.mem_ctrls.perBankRdBursts::7               770                       # Per bank write bursts
system.mem_ctrls.perBankRdBursts::8               838                       # Per bank write bursts
system.mem_ctrls.perBankRdBursts::9               909                       # Per bank write bursts
system.mem_ctrls.perBankRdBursts::10              961                       # Per bank write bursts
system.mem_ctrls.perBankRdBursts::11             1024                       # Per bank write bursts
system.mem_ctrls.perBankRdBursts::12             1024                       # Per bank write bursts
system.mem_ctrls.perBankRdBursts::13              946                       # Per bank write bursts
system.mem_ctrls.perBankRdBursts::14              818                       # Per bank write bursts
system.mem_ctrls.perBankRdBursts::15              918                       # Per bank write bursts
system.mem_ctrls.perBankWrBursts::0               889                       # Per bank write bursts
system.mem_ctrls.perBankWrBursts::1               896                       # Per bank write bursts
system.mem_ctrls.perBankWrBursts::2               896                       # Per bank write bursts
system.mem_ctrls.perBankWrBursts::3               872                       # Per bank write bursts
system.mem_ctrls.perBankWrBursts::4               849                       # Per bank write bursts
system.mem_ctrls.perBankWrBursts::5               782                       # Per bank write bursts
system.mem_ctrls.perBankWrBursts::6               767                       # Per bank write bursts
system.mem_ctrls.perBankWrBursts::7               770                       # Per bank write bursts
system.mem_ctrls.perBankWrBursts::8               859                       # Per bank write bursts
system.mem_ctrls.perBankWrBursts::9               863                       # Per bank write bursts
system.mem_ctrls.perBankWrBursts::10              834                       # Per bank write bursts
system.mem_ctrls.perBankWrBursts::11              893                       # Per bank write bursts
system.mem_ctrls.perBankWrBursts::12              895                       # Per bank write bursts
system.mem_ctrls.perBankWrBursts::13              815                       # Per bank write bursts
system.mem_ctrls.perBankWrBursts::14              656                       # Per bank write bursts
system.mem_ctrls.perBankWrBursts::15              873                       # Per bank write bursts
system.mem_ctrls.numRdRetry                         0                       # Number of times read queue was full causing retry
system.mem_ctrls.numWrRetry                         0                       # Number of times write queue was full causing retry
system.mem_ctrls.totGap                   15266977000                       # Total gap between requests
system.mem_ctrls.readPktSize::0                     0                       # Read request sizes (log2)
system.mem_ctrls.readPktSize::1                     0                       # Read request sizes (log2)
system.mem_ctrls.readPktSize::2                     0                       # Read request sizes (log2)
system.mem_ctrls.readPktSize::3                     0                       # Read request sizes (log2)
system.mem_ctrls.readPktSize::4                     0                       # Read request sizes (log2)
system.mem_ctrls.readPktSize::5                     0                       # Read request sizes (log2)
system.mem_ctrls.readPktSize::6                 14229                       # Read request sizes (log2)
system.mem_ctrls.writePktSize::0                    0                       # Write request sizes (log2)
system.mem_ctrls.writePktSize::1                    0                       # Write request sizes (log2)
system.mem_ctrls.writePktSize::2                    0                       # Write request sizes (log2)
system.mem_ctrls.writePktSize::3                    0                       # Write request sizes (log2)
system.mem_ctrls.writePktSize::4                    0                       # Write request sizes (log2)
system.mem_ctrls.writePktSize::5                    0                       # Write request sizes (log2)
system.mem_ctrls.writePktSize::6                13403                       # Write request sizes (log2)
system.mem_ctrls.rdQLenPdf::0                   14229                       # What read queue length does an incoming req see
system.mem_ctrls.rdQLenPdf::1                       0                       # What read queue length does an incoming req see
system.mem_ctrls.rdQLenPdf::2                       0                       # What read queue length does an incoming req see
system.mem_ctrls.rdQLenPdf::3                       0                       # What read queue length does an incoming req see
system.mem_ctrls.rdQLenPdf::4                       0                       # What read queue length does an incoming req see
system.mem_ctrls.rdQLenPdf::5                       0                       # What read queue length does an incoming req see
system.mem_ctrls.rdQLenPdf::6                       0                       # What read queue length does an incoming req see
system.mem_ctrls.rdQLenPdf::7                       0                       # What read queue length does an incoming req see
system.mem_ctrls.rdQLenPdf::8                       0                       # What read queue length does an incoming req see
system.mem_ctrls.rdQLenPdf::9                       0                       # What read queue length does an incoming req see
system.mem_ctrls.rdQLenPdf::10                      0                       # What read queue length does an incoming req see
system.mem_ctrls.rdQLenPdf::11                      0                       # What read queue length does an incoming req see
system.mem_ctrls.rdQLenPdf::12                      0                       # What read queue length does an incoming req see
system.mem_ctrls.rdQLenPdf::13                      0                       # What read queue length does an incoming req see
system.mem_ctrls.rdQLenPdf::14                      0                       # What read queue length does an incoming req see
system.mem_ctrls.rdQLenPdf::15                      0                       # What read queue length does an incoming req see
system.mem_ctrls.rdQLenPdf::16                      0                       # What read queue length does an incoming req see
system.mem_ctrls.rdQLenPdf::17                      0                       # What read queue length does an incoming req see
system.mem_ctrls.rdQLenPdf::18                      0                       # What read queue length does an incoming req see
system.mem_ctrls.rdQLenPdf::19                      0                       # What read queue length does an incoming req see
system.mem_ctrls.rdQLenPdf::20                      0                       # What read queue length does an incoming req see
system.mem_ctrls.rdQLenPdf::21                      0                       # What read queue length does an incoming req see
system.mem_ctrls.rdQLenPdf::22                      0                       # What read queue length does an incoming req see
system.mem_ctrls.rdQLenPdf::23                      0                       # What read queue length does an incoming req see
system.mem_ctrls.rdQLenPdf::24                      0                       # What read queue length does an incoming req see
system.mem_ctrls.rdQLenPdf::25                      0                       # What read queue length does an incoming req see
system.mem_ctrls.rdQLenPdf::26                      0                       # What read queue length does an incoming req see
system.mem_ctrls.rdQLenPdf::27                      0                       # What read queue length does an incoming req see
system.mem_ctrls.rdQLenPdf::28                      0                       # What read queue length does an incoming req see
system.mem_ctrls.rdQLenPdf::29                      0                       # What read queue length does an incoming req see
system.mem_ctrls.rdQLenPdf::30                      0                       # What read queue length does an incoming req see
system.mem_ctrls.rdQLenPdf::31                      0                       # What read queue length does an incoming req see
system.mem_ctrls.wrQLenPdf::0                       0                       # What write queue length does an incoming req see
system.mem_ctrls.wrQLenPdf::1                       0                       # What write queue length does an incoming req see
system.mem_ctrls.wrQLenPdf::2                       0                       # What write queue length does an incoming req see
system.mem_ctrls.wrQLenPdf::3                       0                       # What write queue length does an incoming req see
system.mem_ctrls.wrQLenPdf::4                       0                       # What write queue length does an incoming req see
system.mem_ctrls.wrQLenPdf::5                       0                       # What write queue length does an incoming req see
system.mem_ctrls.wrQLenPdf::6                       0                       # What write queue length does an incoming req see
system.mem_ctrls.wrQLenPdf::7                       0                       # What write queue length does an incoming req see
system.mem_ctrls.wrQLenPdf::8                       0                       # What write queue length does an incoming req see
system.mem_ctrls.wrQLenPdf::9                       0                       # What write queue length does an incoming req see
system.mem_ctrls.wrQLenPdf::10                      0                       # What write queue length does an incoming req see
system.mem_ctrls.wrQLenPdf::11                      0                       # What write queue length does an incoming req see
system.mem_ctrls.wrQLenPdf::12                      0                       # What write queue length does an incoming req see
system.mem_ctrls.wrQLenPdf::13                      0                       # What write queue length does an incoming req see
system.mem_ctrls.wrQLenPdf::14                      0                       # What write queue length does an incoming req see
system.mem_ctrls.wrQLenPdf::15                    728                       # What write queue length does an incoming req see
system.mem_ctrls.wrQLenPdf::16                    729                       # What write queue length does an incoming req see
system.mem_ctrls.wrQLenPdf::17                    747                       # What write queue length does an incoming req see
system.mem_ctrls.wrQLenPdf::18                    747                       # What write queue length does an incoming req see
system.mem_ctrls.wrQLenPdf::19                    747                       # What write queue length does an incoming req see
system.mem_ctrls.wrQLenPdf::20                    746                       # What write queue length does an incoming req see
system.mem_ctrls.wrQLenPdf::21                    746                       # What write queue length does an incoming req see
system.mem_ctrls.wrQLenPdf::22                    746                       # What write queue length does an incoming req see
system.mem_ctrls.wrQLenPdf::23                    746                       # What write queue length does an incoming req see
system.mem_ctrls.wrQLenPdf::24                    746                       # What write queue length does an incoming req see
system.mem_ctrls.wrQLenPdf::25                    746                       # What write queue length does an incoming req see
system.mem_ctrls.wrQLenPdf::26                    747                       # What write queue length does an incoming req see
system.mem_ctrls.wrQLenPdf::27                    747                       # What write queue length does an incoming req see
system.mem_ctrls.wrQLenPdf::28                    747                       # What write queue length does an incoming req see
system.mem_ctrls.wrQLenPdf::29                    747                       # What write queue length does an incoming req see
system.mem_ctrls.wrQLenPdf::30                    747                       # What write queue length does an incoming req see
system.mem_ctrls.wrQLenPdf::31                    747                       # What write queue length does an incoming req see
system.mem_ctrls.wrQLenPdf::32                    747                       # What write queue length does an incoming req see
system.mem_ctrls.wrQLenPdf::33                      0                       # What write queue length does an incoming req see
system.mem_ctrls.wrQLenPdf::34                      0                       # What write queue length does an incoming req see
system.mem_ctrls.wrQLenPdf::35                      0                       # What write queue length does an incoming req see
system.mem_ctrls.wrQLenPdf::36                      0                       # What write queue length does an incoming req see
system.mem_ctrls.wrQLenPdf::37                      0                       # What write queue length does an incoming req see
system.mem_ctrls.wrQLenPdf::38                      0                       # What write queue length does an incoming req see
system.mem_ctrls.wrQLenPdf::39                      0                       # What write queue length does an incoming req see
system.mem_ctrls.wrQLenPdf::40                      0                       # What write queue length does an incoming req see
system.mem_ctrls.wrQLenPdf::41                      0                       # What write queue length does an incoming req see
system.mem_ctrls.wrQLenPdf::42                      0                       # What write queue length does an incoming req see
system.mem_ctrls.wrQLenPdf::43                      0                       # What write queue length does an incoming req see
system.mem_ctrls.wrQLenPdf::44                      0                       # What write queue length does an incoming req see
system.mem_ctrls.wrQLenPdf::45                      0                       # What write queue length does an incoming req see
system.mem_ctrls.wrQLenPdf::46                      0                       # What write queue length does an incoming req see
system.mem_ctrls.wrQLenPdf::47                      0                       # What write queue length does an incoming req see
system.mem_ctrls.wrQLenPdf::48                      0                       # What write queue length does an incoming req see
system.mem_ctrls.wrQLenPdf::49                      0                       # What write queue length does an incoming req see
system.mem_ctrls.wrQLenPdf::50                      0                       # What write queue length does an incoming req see
system.mem_ctrls.wrQLenPdf::51                      0                       # What write queue length does an incoming req see
system.mem_ctrls.wrQLenPdf::52                      0                       # What write queue length does an incoming req see
system.mem_ctrls.wrQLenPdf::53                      0                       # What write queue length does an incoming req see
system.mem_ctrls.wrQLenPdf::54                      0                       # What write queue length does an incoming req see
system.mem_ctrls.wrQLenPdf::55                      0                       # What write queue length does an incoming req see
system.mem_ctrls.wrQLenPdf::56                      0                       # What write queue length does an incoming req see
system.mem_ctrls.wrQLenPdf::57                      0                       # What write queue length does an incoming req see
system.mem_ctrls.wrQLenPdf::58                      0                       # What write queue length does an incoming req see
system.mem_ctrls.wrQLenPdf::59                      0                       # What write queue length does an incoming req see
system.mem_ctrls.wrQLenPdf::60                      0                       # What write queue length does an incoming req see
system.mem_ctrls.wrQLenPdf::61                      0                       # What write queue length does an incoming req see
system.mem_ctrls.wrQLenPdf::62                      0                       # What write queue length does an incoming req see
system.mem_ctrls.wrQLenPdf::63                      0                       # What write queue length does an incoming req see
system.mem_ctrls.bytesPerActivate::samples         6006                       # Bytes accessed per row activation
system.mem_ctrls.bytesPerActivate::mean    294.542791                       # Bytes accessed per row activation
system.mem_ctrls.bytesPerActivate::gmean   182.836787                       # Bytes accessed per row activation
system.mem_ctrls.bytesPerActivate::stdev   290.311140                       # Bytes accessed per row activation
system.mem_ctrls.bytesPerActivate::0-127         2413     40.18%     40.18% # Bytes accessed per row activation
system.mem_ctrls.bytesPerActivate::128-255          830     13.82%     54.00% # Bytes accessed per row activation
system.mem_ctrls.bytesPerActivate::256-383          552      9.19%     63.19% # Bytes accessed per row activation
system.mem_ctrls.bytesPerActivate::384-511         1452     24.18%     87.36% # Bytes accessed per row activation
system.mem_ctrls.bytesPerActivate::512-639           40      0.67%     88.03% # Bytes accessed per row activation
system.mem_ctrls.bytesPerActivate::640-767           43      0.72%     88.74% # Bytes accessed per row activation
system.mem_ctrls.bytesPerActivate::768-895           73      1.22%     89.96% # Bytes accessed per row activation
system.mem_ctrls.bytesPerActivate::896-1023          106      1.76%     91.72% # Bytes accessed per row activation
system.mem_ctrls.bytesPerActivate::1024-1151          497      8.28%    100.00% # Bytes accessed per row activation
system.mem_ctrls.bytesPerActivate::total         6006                       # Bytes accessed per row activation
system.mem_ctrls.rdPerTurnAround::samples          747                       # Reads before turning the bus around for writes
system.mem_ctrls.rdPerTurnAround::mean      19.056225                       # Reads before turning the bus around for writes
system.mem_ctrls.rdPerTurnAround::gmean     18.477953                       # Reads before turning the bus around for writes
system.mem_ctrls.rdPerTurnAround::stdev      9.282406                       # Reads before turning the bus around for writes
system.mem_ctrls.rdPerTurnAround::16-23           726     97.19%     97.19% # Reads before turning the bus around for writes
system.mem_ctrls.rdPerTurnAround::24-31            13      1.74%     98.93% # Reads before turning the bus around for writes
system.mem_ctrls.rdPerTurnAround::32-39             1      0.13%     99.06% # Reads before turning the bus around for writes
system.mem_ctrls.rdPerTurnAround::64-71             1      0.13%     99.20% # Reads before turning the bus around for writes
system.mem_ctrls.rdPerTurnAround::72-79             2      0.27%     99.46% # Reads before turning the bus around for writes
system.mem_ctrls.rdPerTurnAround::104-111            1      0.13%     99.60% # Reads before turning the bus around for writes
system.mem_ctrls.rdPerTurnAround::136-143            2      0.27%     99.87% # Reads before turning the bus around for writes
system.mem_ctrls.rdPerTurnAround::144-151            1      0.13%    100.00% # Reads before turning the bus around for writes
system.mem_ctrls.rdPerTurnAround::total           747                       # Reads before turning the bus around for writes
system.mem_ctrls.wrPerTurnAround::samples          747                       # Writes before turning the bus around for reads
system.mem_ctrls.wrPerTurnAround::mean      17.950469                       # Writes before turning the bus around for reads
system.mem_ctrls.wrPerTurnAround::gmean     17.947612                       # Writes before turning the bus around for reads
system.mem_ctrls.wrPerTurnAround::stdev      0.308867                       # Writes before turning the bus around for reads
system.mem_ctrls.wrPerTurnAround::16               18      2.41%      2.41% # Writes before turning the bus around for reads
system.mem_ctrls.wrPerTurnAround::17                1      0.13%      2.54% # Writes before turning the bus around for reads
system.mem_ctrls.wrPerTurnAround::18              728     97.46%    100.00% # Writes before turning the bus around for reads
system.mem_ctrls.wrPerTurnAround::total           747                       # Writes before turning the bus around for reads
system.mem_ctrls.totQLat                    369888750                       # Total ticks spent queuing
system.mem_ctrls.totMemAccLat               636682500                       # Total ticks spent from burst creation until serviced by the DRAM
system.mem_ctrls.totBusLat                   71145000                       # Total ticks spent in databus transfers
system.mem_ctrls.avgQLat                     25995.41                       # Average queueing delay per DRAM burst
system.mem_ctrls.avgBusLat                    5000.00                       # Average bus latency per DRAM burst
system.mem_ctrls.avgMemAccLat                44745.41                       # Average memory access latency per DRAM burst
system.mem_ctrls.avgRdBW                        59.65                       # Average DRAM read bandwidth in MiByte/s
system.mem_ctrls.avgWrBW                        56.21                       # Average achieved write bandwidth in MiByte/s
system.mem_ctrls.avgRdBWSys                     59.65                       # Average system read bandwidth in MiByte/s
system.mem_ctrls.avgWrBWSys                     56.18                       # Average system write bandwidth in MiByte/s
system.mem_ctrls.peakBW                      12800.00                       # Theoretical peak bandwidth in MiByte/s
system.mem_ctrls.busUtil                         0.91                       # Data bus utilization in percentage
system.mem_ctrls.busUtilRead                     0.47                       # Data bus utilization in percentage for reads
system.mem_ctrls.busUtilWrite                    0.44                       # Data bus utilization in percentage for writes
system.mem_ctrls.avgRdQLen                       1.00                       # Average read queue length when enqueuing
system.mem_ctrls.avgWrQLen                      24.56                       # Average write queue length when enqueuing
system.mem_ctrls.readRowHits                    10320                       # Number of row buffer hits during reads
system.mem_ctrls.writeRowHits                   11313                       # Number of row buffer hits during writes
system.mem_ctrls.readRowHitRate                 72.53                       # Row buffer hit rate for reads
system.mem_ctrls.writeRowHitRate                84.41                       # Row buffer hit rate for writes
system.mem_ctrls.avgGap                     552510.75                       # Average gap between requests
system.mem_ctrls.pageHitRate                    78.29                       # Row buffer hit rate, read and write combined
system.mem_ctrls_0.actEnergy                 21377160                       # Energy for activate commands per rank (pJ)
system.mem_ctrls_0.preEnergy                 11362230                       # Energy for precharge commands per rank (pJ)
system.mem_ctrls_0.readEnergy                48487740                       # Energy for read commands per rank (pJ)
system.mem_ctrls_0.writeEnergy               35083620                       # Energy for write commands per rank (pJ)
system.mem_ctrls_0.refreshEnergy         1215757920.000000                       # Energy for refresh commands per rank (pJ)
system.mem_ctrls_0.actBackEnergy            704172300                       # Energy for active background per rank (pJ)
system.mem_ctrls_0.preBackEnergy             58379040                       # Energy for precharge background per rank (pJ)
system.mem_ctrls_0.actPowerDownEnergy      3460451190                       # Energy for active power-down per rank (pJ)
system.mem_ctrls_0.prePowerDownEnergy      1393147200                       # Energy for precharge power-down per rank (pJ)
system.mem_ctrls_0.selfRefreshEnergy        754469820                       # Energy for self refresh per rank (pJ)
system.mem_ctrls_0.totalEnergy             7702714590                       # Total energy per rank (pJ)
system.mem_ctrls_0.averagePower            504.522236                       # Core power per rank (mW)
system.mem_ctrls_0.totalIdleTime          13565263875                       # Total Idle time Per DRAM Rank
system.mem_ctrls_0.memoryStateTime::IDLE     99636000                       # Time in different power states
system.mem_ctrls_0.memoryStateTime::REF     516350000                       # Time in different power states
system.mem_ctrls_0.memoryStateTime::SREF   2354323625                       # Time in different power states
system.mem_ctrls_0.memoryStateTime::PRE_PDN   3628124750                       # Time in different power states
system.mem_ctrls_0.memoryStateTime::ACT    1080184250                       # Time in different power states
system.mem_ctrls_0.memoryStateTime::ACT_PDN   7588725500                       # Time in different power states
system.mem_ctrls_1.actEnergy                 21498540                       # Energy for activate commands per rank (pJ)
system.mem_ctrls_1.preEnergy                 11430540                       # Energy for precharge commands per rank (pJ)
system.mem_ctrls_1.readEnergy                53107320                       # Energy for read commands per rank (pJ)
system.mem_ctrls_1.writeEnergy               34911360                       # Energy for write commands per rank (pJ)
system.mem_ctrls_1.refreshEnergy         1154908560.000000                       # Energy for refresh commands per rank (pJ)
system.mem_ctrls_1.actBackEnergy            694766730                       # Energy for active background per rank (pJ)
system.mem_ctrls_1.preBackEnergy             54142560                       # Energy for precharge background per rank (pJ)
system.mem_ctrls_1.actPowerDownEnergy      3626800560                       # Energy for active power-down per rank (pJ)
system.mem_ctrls_1.prePowerDownEnergy      1149265440                       # Energy for precharge power-down per rank (pJ)
system.mem_ctrls_1.selfRefreshEnergy        791046120                       # Energy for self refresh per rank (pJ)
system.mem_ctrls_1.totalEnergy             7592157510                       # Total energy per rank (pJ)
system.mem_ctrls_1.averagePower            497.280827                       # Core power per rank (mW)
system.mem_ctrls_1.totalIdleTime          13602193625                       # Total Idle time Per DRAM Rank
system.mem_ctrls_1.memoryStateTime::IDLE     89906000                       # Time in different power states
system.mem_ctrls_1.memoryStateTime::REF     490256750                       # Time in different power states
system.mem_ctrls_1.memoryStateTime::SREF   2655706000                       # Time in different power states
system.mem_ctrls_1.memoryStateTime::PRE_PDN   2992911750                       # Time in different power states
system.mem_ctrls_1.memoryStateTime::ACT    1084987750                       # Time in different power states
system.mem_ctrls_1.memoryStateTime::ACT_PDN   7953575875                       # Time in different power states
system.pwrStateResidencyTicks::UNDEFINED  15267344125                       # Cumulative time (in ticks) in various power states
system.cpu0.branchPred.lookups                5253809                       # Number of BP lookups
system.cpu0.branchPred.condPredicted          5253809                       # Number of conditional branches predicted
system.cpu0.branchPred.condIncorrect           108817                       # Number of conditional branches incorrect
system.cpu0.branchPred.BTBLookups             4069486                       # Number of BTB lookups
system.cpu0.branchPred.BTBHits                      0                       # Number of BTB hits
system.cpu0.branchPred.BTBCorrect                   0                       # Number of correct BTB predictions (this stat may not work properly.
system.cpu0.branchPred.BTBHitPct             0.000000                       # BTB Hit Percentage
system.cpu0.branchPred.usedRAS                 731649                       # Number of times the RAS was used to get a target.
system.cpu0.branchPred.RASInCorrect               219                       # Number of incorrect RAS predictions.
system.cpu0.branchPred.indirectLookups        4069486                       # Number of indirect predictor lookups.
system.cpu0.branchPred.indirectHits           2530443                       # Number of indirect target hits.
system.cpu0.branchPred.indirectMisses         1539043                       # Number of indirect misses.
system.cpu0.branchPredindirectMispredicted           64                       # Number of mispredicted indirect branches.
system.cpu_voltage_domain.voltage                   1                       # Voltage in Volts
system.cpu_clk_domain.clock                       500                       # Clock period in ticks
system.cpu0.dtb.walker.pwrStateResidencyTicks::UNDEFINED  15267344125                       # Cumulative time (in ticks) in various power states
system.cpu0.dtb.rdAccesses                    8908179                       # TLB accesses on read requests
system.cpu0.dtb.wrAccesses                    2096194                       # TLB accesses on write requests
system.cpu0.dtb.rdMisses                          655                       # TLB misses on read requests
system.cpu0.dtb.wrMisses                            0                       # TLB misses on write requests
system.cpu0.apic_clk_domain.clock                8000                       # Clock period in ticks
system.cpu0.interrupts.pwrStateResidencyTicks::UNDEFINED  15267344125                       # Cumulative time (in ticks) in various power states
system.cpu0.itb.walker.pwrStateResidencyTicks::UNDEFINED  15267344125                       # Cumulative time (in ticks) in various power states
system.cpu0.itb.rdAccesses                          0                       # TLB accesses on read requests
system.cpu0.itb.wrAccesses                    6272183                       # TLB accesses on write requests
system.cpu0.itb.rdMisses                            0                       # TLB misses on read requests
system.cpu0.itb.wrMisses                           10                       # TLB misses on write requests
system.cpu0.workload.numSyscalls                    0                       # Number of system calls
system.cpu0.pwrStateResidencyTicks::ON    15267344125                       # Cumulative time (in ticks) in various power states
system.cpu0.numCycles                        30534689                       # number of cpu cycles simulated
system.cpu0.numWorkItemsStarted                     0                       # number of work items this cpu started
system.cpu0.numWorkItemsCompleted                   0                       # number of work items this cpu completed
system.cpu0.fetch.icacheStallCycles           6332275                       # Number of cycles fetch is stalled on an Icache miss
system.cpu0.fetch.Insts                      46389952                       # Number of instructions fetch has processed
system.cpu0.fetch.Branches                    5253809                       # Number of branches that fetch encountered
system.cpu0.fetch.predictedBranches           3262092                       # Number of branches that fetch has predicted taken
system.cpu0.fetch.Cycles                     24093442                       # Number of cycles fetch has run and was not squashing or blocked
system.cpu0.fetch.SquashCycles                 217860                       # Number of cycles fetch has spent squashing
system.cpu0.fetch.PendingTrapStallCycles           42                       # Number of stall cycles due to pending traps
system.cpu0.fetch.CacheLines                  6272173                       # Number of cache lines fetched
system.cpu0.fetch.IcacheSquashes                48801                       # Number of outstanding Icache misses that were squashed
system.cpu0.fetch.rateDist::samples          30534689                       # Number of instructions fetched each cycle (Total)
system.cpu0.fetch.rateDist::mean             2.655037                       # Number of instructions fetched each cycle (Total)
system.cpu0.fetch.rateDist::stdev            3.366876                       # Number of instructions fetched each cycle (Total)
system.cpu0.fetch.rateDist::underflows              0      0.00%      0.00% # Number of instructions fetched each cycle (Total)
system.cpu0.fetch.rateDist::0                16772494     54.93%     54.93% # Number of instructions fetched each cycle (Total)
system.cpu0.fetch.rateDist::1                  722436      2.37%     57.30% # Number of instructions fetched each cycle (Total)
system.cpu0.fetch.rateDist::2                 1663072      5.45%     62.74% # Number of instructions fetched each cycle (Total)
system.cpu0.fetch.rateDist::3                  668970      2.19%     64.93% # Number of instructions fetched each cycle (Total)
system.cpu0.fetch.rateDist::4                  992007      3.25%     68.18% # Number of instructions fetched each cycle (Total)
system.cpu0.fetch.rateDist::5                 1556867      5.10%     73.28% # Number of instructions fetched each cycle (Total)
system.cpu0.fetch.rateDist::6                  572705      1.88%     75.16% # Number of instructions fetched each cycle (Total)
system.cpu0.fetch.rateDist::7                  862453      2.82%     77.98% # Number of instructions fetched each cycle (Total)
system.cpu0.fetch.rateDist::8                 6723685     22.02%    100.00% # Number of instructions fetched each cycle (Total)
system.cpu0.fetch.rateDist::overflows               0      0.00%    100.00% # Number of instructions fetched each cycle (Total)
system.cpu0.fetch.rateDist::min_value               0                       # Number of instructions fetched each cycle (Total)
system.cpu0.fetch.rateDist::max_value               8                       # Number of instructions fetched each cycle (Total)
system.cpu0.fetch.rateDist::total            30534689                       # Number of instructions fetched each cycle (Total)
system.cpu0.fetch.branchRate                 0.172060                       # Number of branch fetches per cycle
system.cpu0.fetch.rate                       1.519254                       # Number of inst fetches per cycle
system.cpu0.decode.IdleCycles                 4125199                       # Number of cycles decode is idle
system.cpu0.decode.BlockedCycles             15759213                       # Number of cycles decode is blocked
system.cpu0.decode.RunCycles                  6203554                       # Number of cycles decode is running
system.cpu0.decode.UnblockCycles              4337793                       # Number of cycles decode is unblocking
system.cpu0.decode.SquashCycles                108930                       # Number of cycles decode is squashing
system.cpu0.decode.DecodedInsts              77561597                       # Number of instructions handled by decode
system.cpu0.rename.SquashCycles                108930                       # Number of cycles rename is squashing
system.cpu0.rename.IdleCycles                 5828515                       # Number of cycles rename is idle
system.cpu0.rename.BlockCycles                5710131                       # Number of cycles rename is blocking
system.cpu0.rename.serializeStallCycles            12                       # count of cycles rename stalled for serializing inst
system.cpu0.rename.RunCycles                  8780357                       # Number of cycles rename is running
system.cpu0.rename.UnblockCycles             10106744                       # Number of cycles rename is unblocking
system.cpu0.rename.RenamedInsts              77014942                       # Number of instructions processed by rename
system.cpu0.rename.ROBFullEvents               203287                       # Number of times rename has blocked due to ROB full
system.cpu0.rename.IQFullEvents               9044650                       # Number of times rename has blocked due to IQ full
system.cpu0.rename.RenamedOperands           82834813                       # Number of destination operands rename has renamed
system.cpu0.rename.RenameLookups            182956809                       # Number of register rename lookups that rename has made
system.cpu0.rename.int_rename_lookups        60238383                       # Number of integer rename lookups
system.cpu0.rename.fp_rename_lookups         75053519                       # Number of floating rename lookups
system.cpu0.rename.CommittedMaps             70387903                       # Number of HB maps that are committed
system.cpu0.rename.UndoneMaps                12446931                       # Number of HB maps that are undone due to squashing
system.cpu0.rename.serializingInsts                 6                       # count of serializing insts renamed
system.cpu0.rename.tempSerializingInsts             6                       # count of temporary serializing insts renamed
system.cpu0.rename.skidInsts                 23246781                       # count of insts added to the skid buffer
system.cpu0.memDep0.insertedLoads             9500392                       # Number of loads inserted to the mem dependence unit.
system.cpu0.memDep0.insertedStores            2099619                       # Number of stores inserted to the mem dependence unit.
system.cpu0.memDep0.conflictingLoads           425006                       # Number of conflicting loads.
system.cpu0.memDep0.conflictingStores          124661                       # Number of conflicting stores.
system.cpu0.iq.iqInstsAdded                  76359954                       # Number of instructions added to the IQ (excludes non-spec)
system.cpu0.iq.iqNonSpecInstsAdded                  4                       # Number of non-speculative instructions added to the IQ
system.cpu0.iq.iqInstsIssued                 70693785                       # Number of instructions issued
system.cpu0.iq.iqSquashedInstsIssued               24                       # Number of squashed instructions issued
system.cpu0.iq.iqSquashedInstsExamined       10579947                       # Number of squashed instructions iterated over during squash; mainly for profiling
system.cpu0.iq.iqSquashedOperandsExamined     15267306                       # Number of squashed operands that are examined and possibly removed from graph
system.cpu0.iq.iqSquashedNonSpecRemoved             4                       # Number of squashed non-spec instructions that were removed
system.cpu0.iq.issued_per_cycle::samples     30534689                       # Number of insts issued each cycle
system.cpu0.iq.issued_per_cycle::mean        2.315196                       # Number of insts issued each cycle
system.cpu0.iq.issued_per_cycle::stdev       1.959430                       # Number of insts issued each cycle
system.cpu0.iq.issued_per_cycle::underflows            0      0.00%      0.00% # Number of insts issued each cycle
system.cpu0.iq.issued_per_cycle::0            6388997     20.92%     20.92% # Number of insts issued each cycle
system.cpu0.iq.issued_per_cycle::1            6075010     19.90%     40.82% # Number of insts issued each cycle
system.cpu0.iq.issued_per_cycle::2            5653094     18.51%     59.33% # Number of insts issued each cycle
system.cpu0.iq.issued_per_cycle::3            4862118     15.92%     75.26% # Number of insts issued each cycle
system.cpu0.iq.issued_per_cycle::4            2966455      9.72%     84.97% # Number of insts issued each cycle
system.cpu0.iq.issued_per_cycle::5            1973299      6.46%     91.43% # Number of insts issued each cycle
system.cpu0.iq.issued_per_cycle::6            1616436      5.29%     96.73% # Number of insts issued each cycle
system.cpu0.iq.issued_per_cycle::7             698938      2.29%     99.02% # Number of insts issued each cycle
system.cpu0.iq.issued_per_cycle::8             300342      0.98%    100.00% # Number of insts issued each cycle
system.cpu0.iq.issued_per_cycle::overflows            0      0.00%    100.00% # Number of insts issued each cycle
system.cpu0.iq.issued_per_cycle::min_value            0                       # Number of insts issued each cycle
system.cpu0.iq.issued_per_cycle::max_value            8                       # Number of insts issued each cycle
system.cpu0.iq.issued_per_cycle::total       30534689                       # Number of insts issued each cycle
system.cpu0.iq.fu_full::No_OpClass                  0      0.00%      0.00% # attempts to use FU when none available
system.cpu0.iq.fu_full::IntAlu                    314      0.30%      0.30% # attempts to use FU when none available
system.cpu0.iq.fu_full::IntMult                     0      0.00%      0.30% # attempts to use FU when none available
system.cpu0.iq.fu_full::IntDiv                      0      0.00%      0.30% # attempts to use FU when none available
system.cpu0.iq.fu_full::FloatAdd               105124     99.52%     99.82% # attempts to use FU when none available
system.cpu0.iq.fu_full::FloatCmp                    0      0.00%     99.82% # attempts to use FU when none available
system.cpu0.iq.fu_full::FloatCvt                    0      0.00%     99.82% # attempts to use FU when none available
system.cpu0.iq.fu_full::FloatMult                   0      0.00%     99.82% # attempts to use FU when none available
system.cpu0.iq.fu_full::FloatMultAcc                0      0.00%     99.82% # attempts to use FU when none available
system.cpu0.iq.fu_full::FloatDiv                    0      0.00%     99.82% # attempts to use FU when none available
system.cpu0.iq.fu_full::FloatMisc                   0      0.00%     99.82% # attempts to use FU when none available
system.cpu0.iq.fu_full::FloatSqrt                   0      0.00%     99.82% # attempts to use FU when none available
system.cpu0.iq.fu_full::SimdAdd                     0      0.00%     99.82% # attempts to use FU when none available
system.cpu0.iq.fu_full::SimdAddAcc                  0      0.00%     99.82% # attempts to use FU when none available
system.cpu0.iq.fu_full::SimdAlu                     0      0.00%     99.82% # attempts to use FU when none available
system.cpu0.iq.fu_full::SimdCmp                     0      0.00%     99.82% # attempts to use FU when none available
system.cpu0.iq.fu_full::SimdCvt                     0      0.00%     99.82% # attempts to use FU when none available
system.cpu0.iq.fu_full::SimdMisc                    0      0.00%     99.82% # attempts to use FU when none available
system.cpu0.iq.fu_full::SimdMult                    0      0.00%     99.82% # attempts to use FU when none available
system.cpu0.iq.fu_full::SimdMultAcc                 0      0.00%     99.82% # attempts to use FU when none available
system.cpu0.iq.fu_full::SimdShift                   0      0.00%     99.82% # attempts to use FU when none available
system.cpu0.iq.fu_full::SimdShiftAcc                0      0.00%     99.82% # attempts to use FU when none available
system.cpu0.iq.fu_full::SimdSqrt                    0      0.00%     99.82% # attempts to use FU when none available
system.cpu0.iq.fu_full::SimdFloatAdd                0      0.00%     99.82% # attempts to use FU when none available
system.cpu0.iq.fu_full::SimdFloatAlu                0      0.00%     99.82% # attempts to use FU when none available
system.cpu0.iq.fu_full::SimdFloatCmp                0      0.00%     99.82% # attempts to use FU when none available
system.cpu0.iq.fu_full::SimdFloatCvt                0      0.00%     99.82% # attempts to use FU when none available
system.cpu0.iq.fu_full::SimdFloatDiv                0      0.00%     99.82% # attempts to use FU when none available
system.cpu0.iq.fu_full::SimdFloatMisc               0      0.00%     99.82% # attempts to use FU when none available
system.cpu0.iq.fu_full::SimdFloatMult               0      0.00%     99.82% # attempts to use FU when none available
system.cpu0.iq.fu_full::SimdFloatMultAcc            0      0.00%     99.82% # attempts to use FU when none available
system.cpu0.iq.fu_full::SimdFloatSqrt               0      0.00%     99.82% # attempts to use FU when none available
system.cpu0.iq.fu_full::MemRead                   187      0.18%    100.00% # attempts to use FU when none available
system.cpu0.iq.fu_full::MemWrite                    0      0.00%    100.00% # attempts to use FU when none available
system.cpu0.iq.fu_full::FloatMemRead                2      0.00%    100.00% # attempts to use FU when none available
system.cpu0.iq.fu_full::FloatMemWrite               0      0.00%    100.00% # attempts to use FU when none available
system.cpu0.iq.fu_full::IprAccess                   0      0.00%    100.00% # attempts to use FU when none available
system.cpu0.iq.fu_full::InstPrefetch                0      0.00%    100.00% # attempts to use FU when none available
system.cpu0.iq.FU_type_0::No_OpClass             6248      0.01%      0.01% # Type of FU issued
system.cpu0.iq.FU_type_0::IntAlu             36783413     52.03%     52.04% # Type of FU issued
system.cpu0.iq.FU_type_0::IntMult                   0      0.00%     52.04% # Type of FU issued
system.cpu0.iq.FU_type_0::IntDiv                    0      0.00%     52.04% # Type of FU issued
system.cpu0.iq.FU_type_0::FloatAdd           22923531     32.43%     84.47% # Type of FU issued
system.cpu0.iq.FU_type_0::FloatCmp                  0      0.00%     84.47% # Type of FU issued
system.cpu0.iq.FU_type_0::FloatCvt                  0      0.00%     84.47% # Type of FU issued
system.cpu0.iq.FU_type_0::FloatMult                 0      0.00%     84.47% # Type of FU issued
system.cpu0.iq.FU_type_0::FloatMultAcc              0      0.00%     84.47% # Type of FU issued
system.cpu0.iq.FU_type_0::FloatDiv                  0      0.00%     84.47% # Type of FU issued
system.cpu0.iq.FU_type_0::FloatMisc                 0      0.00%     84.47% # Type of FU issued
system.cpu0.iq.FU_type_0::FloatSqrt                 0      0.00%     84.47% # Type of FU issued
system.cpu0.iq.FU_type_0::SimdAdd                   0      0.00%     84.47% # Type of FU issued
system.cpu0.iq.FU_type_0::SimdAddAcc                0      0.00%     84.47% # Type of FU issued
system.cpu0.iq.FU_type_0::SimdAlu                   0      0.00%     84.47% # Type of FU issued
system.cpu0.iq.FU_type_0::SimdCmp                   0      0.00%     84.47% # Type of FU issued
system.cpu0.iq.FU_type_0::SimdCvt                   0      0.00%     84.47% # Type of FU issued
system.cpu0.iq.FU_type_0::SimdMisc                  0      0.00%     84.47% # Type of FU issued
system.cpu0.iq.FU_type_0::SimdMult                  0      0.00%     84.47% # Type of FU issued
system.cpu0.iq.FU_type_0::SimdMultAcc               0      0.00%     84.47% # Type of FU issued
system.cpu0.iq.FU_type_0::SimdShift                 0      0.00%     84.47% # Type of FU issued
system.cpu0.iq.FU_type_0::SimdShiftAcc              0      0.00%     84.47% # Type of FU issued
system.cpu0.iq.FU_type_0::SimdSqrt                  0      0.00%     84.47% # Type of FU issued
system.cpu0.iq.FU_type_0::SimdFloatAdd              0      0.00%     84.47% # Type of FU issued
system.cpu0.iq.FU_type_0::SimdFloatAlu              0      0.00%     84.47% # Type of FU issued
system.cpu0.iq.FU_type_0::SimdFloatCmp              0      0.00%     84.47% # Type of FU issued
system.cpu0.iq.FU_type_0::SimdFloatCvt              0      0.00%     84.47% # Type of FU issued
system.cpu0.iq.FU_type_0::SimdFloatDiv              0      0.00%     84.47% # Type of FU issued
system.cpu0.iq.FU_type_0::SimdFloatMisc             0      0.00%     84.47% # Type of FU issued
system.cpu0.iq.FU_type_0::SimdFloatMult             0      0.00%     84.47% # Type of FU issued
system.cpu0.iq.FU_type_0::SimdFloatMultAcc            0      0.00%     84.47% # Type of FU issued
system.cpu0.iq.FU_type_0::SimdFloatSqrt             0      0.00%     84.47% # Type of FU issued
system.cpu0.iq.FU_type_0::MemRead             1958332      2.77%     87.24% # Type of FU issued
system.cpu0.iq.FU_type_0::MemWrite            1470934      2.08%     89.32% # Type of FU issued
system.cpu0.iq.FU_type_0::FloatMemRead        6925453      9.80%     99.11% # Type of FU issued
system.cpu0.iq.FU_type_0::FloatMemWrite        625874      0.89%    100.00% # Type of FU issued
system.cpu0.iq.FU_type_0::IprAccess                 0      0.00%    100.00% # Type of FU issued
system.cpu0.iq.FU_type_0::InstPrefetch              0      0.00%    100.00% # Type of FU issued
system.cpu0.iq.FU_type_0::total              70693785                       # Type of FU issued
system.cpu0.iq.rate                          2.315196                       # Inst issue rate
system.cpu0.iq.fu_busy_cnt                     105627                       # FU busy when requested
system.cpu0.iq.fu_busy_rate                  0.001494                       # FU busy rate (busy events/executed inst)
system.cpu0.iq.int_inst_queue_reads          97448465                       # Number of integer instruction queue reads
system.cpu0.iq.int_inst_queue_writes         37502163                       # Number of integer instruction queue writes
system.cpu0.iq.int_inst_queue_wakeup_accesses     33387320                       # Number of integer instruction queue wakeup accesses
system.cpu0.iq.fp_inst_queue_reads           74579441                       # Number of floating instruction queue reads
system.cpu0.iq.fp_inst_queue_writes          49437855                       # Number of floating instruction queue writes
system.cpu0.iq.fp_inst_queue_wakeup_accesses     37086217                       # Number of floating instruction queue wakeup accesses
system.cpu0.iq.vec_inst_queue_reads                 0                       # Number of vector instruction queue reads
system.cpu0.iq.vec_inst_queue_writes                0                       # Number of vector instruction queue writes
system.cpu0.iq.vec_inst_queue_wakeup_accesses            0                       # Number of vector instruction queue wakeup accesses
system.cpu0.iq.int_alu_accesses              33450873                       # Number of integer alu accesses
system.cpu0.iq.fp_alu_accesses               37342291                       # Number of floating point alu accesses
system.cpu0.iq.vec_alu_accesses                     0                       # Number of vector alu accesses
system.cpu0.iew.lsq.thread0.forwLoads          418753                       # Number of loads that had data forwarded from stores
system.cpu0.iew.lsq.thread0.invAddrLoads            0                       # Number of loads ignored due to an invalid address
system.cpu0.iew.lsq.thread0.squashedLoads      1399407                       # Number of loads squashed
system.cpu0.iew.lsq.thread0.ignoredResponses            9                       # Number of memory responses ignored because the instruction is squashed
system.cpu0.iew.lsq.thread0.memOrderViolation          113                       # Number of memory ordering violations
system.cpu0.iew.lsq.thread0.squashedStores         6426                       # Number of stores squashed
system.cpu0.iew.lsq.thread0.invAddrSwpfs            0                       # Number of software prefetches ignored due to an invalid address
system.cpu0.iew.lsq.thread0.blockedLoads            0                       # Number of blocked loads due to partial load-store forwarding
system.cpu0.iew.lsq.thread0.rescheduledLoads            0                       # Number of loads that were rescheduled
system.cpu0.iew.lsq.thread0.cacheBlocked            0                       # Number of times an access to memory failed due to the cache being blocked
system.cpu0.iew.iewIdleCycles                       0                       # Number of cycles IEW is idle
system.cpu0.iew.iewSquashCycles                108930                       # Number of cycles IEW is squashing
system.cpu0.iew.iewBlockCycles                3355244                       # Number of cycles IEW is blocking
system.cpu0.iew.iewUnblockCycles               121343                       # Number of cycles IEW is unblocking
system.cpu0.iew.iewDispatchedInsts           76359958                       # Number of instructions dispatched to IQ
system.cpu0.iew.iewDispSquashedInsts                0                       # Number of squashed instructions skipped by dispatch
system.cpu0.iew.iewDispLoadInsts              9500392                       # Number of dispatched load instructions
system.cpu0.iew.iewDispStoreInsts             2099619                       # Number of dispatched store instructions
system.cpu0.iew.iewDispNonSpecInsts                 4                       # Number of dispatched non-speculative instructions
system.cpu0.iew.iewIQFullEvents                108014                       # Number of times the IQ has become full, causing a stall
system.cpu0.iew.iewLSQFullEvents                    0                       # Number of times the LSQ has become full, causing a stall
system.cpu0.iew.memOrderViolationEvents           113                       # Number of memory order violations
system.cpu0.iew.predictedTakenIncorrect         63819                       # Number of branches that were predicted taken incorrectly
system.cpu0.iew.predictedNotTakenIncorrect        45254                       # Number of branches that were predicted not taken incorrectly
system.cpu0.iew.branchMispredicts              109073                       # Number of branch mispredicts detected at execute
system.cpu0.iew.iewExecutedInsts             70483197                       # Number of executed instructions
system.cpu0.iew.iewExecLoadInsts              8881897                       # Number of load instructions executed
system.cpu0.iew.iewExecSquashedInsts           210584                       # Number of squashed instructions skipped in execute
system.cpu0.iew.exec_swp                            0                       # number of swp insts executed
system.cpu0.iew.exec_nop                            0                       # number of nop insts executed
system.cpu0.iew.exec_refs                    10978091                       # number of memory reference insts executed
system.cpu0.iew.exec_branches                 4709030                       # Number of branches executed
system.cpu0.iew.exec_stores                   2096194                       # Number of stores executed
system.cpu0.iew.exec_rate                    2.308299                       # Inst execution rate
system.cpu0.iew.wb_sent                      70478537                       # cumulative count of insts sent to commit
system.cpu0.iew.wb_count                     70473537                       # cumulative count of insts written-back
system.cpu0.iew.wb_producers                 52475270                       # num instructions producing a value
system.cpu0.iew.wb_consumers                 92350657                       # num instructions consuming a value
system.cpu0.iew.wb_rate                      2.307983                       # insts written-back per cycle
system.cpu0.iew.wb_fanout                    0.568218                       # average fanout of values written-back
system.cpu0.commit.commitSquashedInsts       10579947                       # The number of squashed insts skipped by commit
system.cpu0.commit.branchMispredicts           108817                       # The number of times a branch was mispredicted
system.cpu0.commit.committed_per_cycle::samples     29181607                       # Number of insts commited each cycle
system.cpu0.commit.committed_per_cycle::mean     2.254160                       # Number of insts commited each cycle
system.cpu0.commit.committed_per_cycle::stdev     2.861755                       # Number of insts commited each cycle
system.cpu0.commit.committed_per_cycle::underflows            0      0.00%      0.00% # Number of insts commited each cycle
system.cpu0.commit.committed_per_cycle::0     10958272     37.55%     37.55% # Number of insts commited each cycle
system.cpu0.commit.committed_per_cycle::1      7514572     25.75%     63.30% # Number of insts commited each cycle
system.cpu0.commit.committed_per_cycle::2      1054391      3.61%     66.92% # Number of insts commited each cycle
system.cpu0.commit.committed_per_cycle::3      2900080      9.94%     76.85% # Number of insts commited each cycle
system.cpu0.commit.committed_per_cycle::4      1140531      3.91%     80.76% # Number of insts commited each cycle
system.cpu0.commit.committed_per_cycle::5       216606      0.74%     81.50% # Number of insts commited each cycle
system.cpu0.commit.committed_per_cycle::6       420390      1.44%     82.95% # Number of insts commited each cycle
system.cpu0.commit.committed_per_cycle::7       525194      1.80%     84.75% # Number of insts commited each cycle
system.cpu0.commit.committed_per_cycle::8      4451571     15.25%    100.00% # Number of insts commited each cycle
system.cpu0.commit.committed_per_cycle::overflows            0      0.00%    100.00% # Number of insts commited each cycle
system.cpu0.commit.committed_per_cycle::min_value            0                       # Number of insts commited each cycle
system.cpu0.commit.committed_per_cycle::max_value            8                       # Number of insts commited each cycle
system.cpu0.commit.committed_per_cycle::total     29181607                       # Number of insts commited each cycle
system.cpu0.commit.committedInsts            37046538                       # Number of instructions committed
system.cpu0.commit.committedOps              65780014                       # Number of ops (including micro ops) committed
system.cpu0.commit.swp_count                        0                       # Number of s/w prefetches committed
system.cpu0.commit.refs                      10194177                       # Number of memory references committed
system.cpu0.commit.loads                      8100980                       # Number of loads committed
system.cpu0.commit.membars                          0                       # Number of memory barriers committed
system.cpu0.commit.branches                   4600792                       # Number of branches committed
system.cpu0.commit.vec_insts                        0                       # Number of committed Vector instructions.
system.cpu0.commit.fp_insts                  34010128                       # Number of committed floating point instructions.
system.cpu0.commit.int_insts                 40840781                       # Number of committed integer instructions.
system.cpu0.commit.function_calls              625838                       # Number of function calls committed.
system.cpu0.commit.op_class_0::No_OpClass         5976      0.01%      0.01% # Class of committed instruction
system.cpu0.commit.op_class_0::IntAlu        34193869     51.98%     51.99% # Class of committed instruction
system.cpu0.commit.op_class_0::IntMult              0      0.00%     51.99% # Class of committed instruction
system.cpu0.commit.op_class_0::IntDiv               0      0.00%     51.99% # Class of committed instruction
system.cpu0.commit.op_class_0::FloatAdd      21385992     32.51%     84.50% # Class of committed instruction
system.cpu0.commit.op_class_0::FloatCmp             0      0.00%     84.50% # Class of committed instruction
system.cpu0.commit.op_class_0::FloatCvt             0      0.00%     84.50% # Class of committed instruction
system.cpu0.commit.op_class_0::FloatMult            0      0.00%     84.50% # Class of committed instruction
system.cpu0.commit.op_class_0::FloatMultAcc            0      0.00%     84.50% # Class of committed instruction
system.cpu0.commit.op_class_0::FloatDiv             0      0.00%     84.50% # Class of committed instruction
system.cpu0.commit.op_class_0::FloatMisc            0      0.00%     84.50% # Class of committed instruction
system.cpu0.commit.op_class_0::FloatSqrt            0      0.00%     84.50% # Class of committed instruction
system.cpu0.commit.op_class_0::SimdAdd              0      0.00%     84.50% # Class of committed instruction
system.cpu0.commit.op_class_0::SimdAddAcc            0      0.00%     84.50% # Class of committed instruction
system.cpu0.commit.op_class_0::SimdAlu              0      0.00%     84.50% # Class of committed instruction
system.cpu0.commit.op_class_0::SimdCmp              0      0.00%     84.50% # Class of committed instruction
system.cpu0.commit.op_class_0::SimdCvt              0      0.00%     84.50% # Class of committed instruction
system.cpu0.commit.op_class_0::SimdMisc             0      0.00%     84.50% # Class of committed instruction
system.cpu0.commit.op_class_0::SimdMult             0      0.00%     84.50% # Class of committed instruction
system.cpu0.commit.op_class_0::SimdMultAcc            0      0.00%     84.50% # Class of committed instruction
system.cpu0.commit.op_class_0::SimdShift            0      0.00%     84.50% # Class of committed instruction
system.cpu0.commit.op_class_0::SimdShiftAcc            0      0.00%     84.50% # Class of committed instruction
system.cpu0.commit.op_class_0::SimdSqrt             0      0.00%     84.50% # Class of committed instruction
system.cpu0.commit.op_class_0::SimdFloatAdd            0      0.00%     84.50% # Class of committed instruction
system.cpu0.commit.op_class_0::SimdFloatAlu            0      0.00%     84.50% # Class of committed instruction
system.cpu0.commit.op_class_0::SimdFloatCmp            0      0.00%     84.50% # Class of committed instruction
system.cpu0.commit.op_class_0::SimdFloatCvt            0      0.00%     84.50% # Class of committed instruction
system.cpu0.commit.op_class_0::SimdFloatDiv            0      0.00%     84.50% # Class of committed instruction
system.cpu0.commit.op_class_0::SimdFloatMisc            0      0.00%     84.50% # Class of committed instruction
system.cpu0.commit.op_class_0::SimdFloatMult            0      0.00%     84.50% # Class of committed instruction
system.cpu0.commit.op_class_0::SimdFloatMultAcc            0      0.00%     84.50% # Class of committed instruction
system.cpu0.commit.op_class_0::SimdFloatSqrt            0      0.00%     84.50% # Class of committed instruction
system.cpu0.commit.op_class_0::MemRead        1944695      2.96%     87.46% # Class of committed instruction
system.cpu0.commit.op_class_0::MemWrite       1467352      2.23%     89.69% # Class of committed instruction
system.cpu0.commit.op_class_0::FloatMemRead      6156285      9.36%     99.05% # Class of committed instruction
system.cpu0.commit.op_class_0::FloatMemWrite       625845      0.95%    100.00% # Class of committed instruction
system.cpu0.commit.op_class_0::IprAccess            0      0.00%    100.00% # Class of committed instruction
system.cpu0.commit.op_class_0::InstPrefetch            0      0.00%    100.00% # Class of committed instruction
system.cpu0.commit.op_class_0::total         65780014                       # Class of committed instruction
system.cpu0.commit.bw_lim_events              4451571                       # number cycles where commit BW limit reached
system.cpu0.rob.rob_reads                   101089997                       # The number of ROB reads
system.cpu0.rob.rob_writes                  154073024                       # The number of ROB writes
system.cpu0.committedInsts                   37046538                       # Number of Instructions Simulated
system.cpu0.committedOps                     65780014                       # Number of Ops (including micro ops) Simulated
system.cpu0.cpi                              0.824225                       # CPI: Cycles Per Instruction
system.cpu0.cpi_total                        0.824225                       # CPI: Total CPI of All Threads
system.cpu0.ipc                              1.213261                       # IPC: Instructions Per Cycle
system.cpu0.ipc_total                        1.213261                       # IPC: Total IPC of All Threads
system.cpu0.int_regfile_reads                56105329                       # number of integer regfile reads
system.cpu0.int_regfile_writes               28554522                       # number of integer regfile writes
system.cpu0.fp_regfile_reads                 64633974                       # number of floating regfile reads
system.cpu0.fp_regfile_writes                33233370                       # number of floating regfile writes
system.cpu0.cc_regfile_reads                 20574979                       # number of cc regfile reads
system.cpu0.cc_regfile_writes                13396282                       # number of cc regfile writes
system.cpu0.misc_regfile_reads               24110907                       # number of misc regfile reads
system.cpu0.dcache.tags.pwrStateResidencyTicks::UNDEFINED  15267344125                       # Cumulative time (in ticks) in various power states
system.cpu0.dcache.tags.replacements            14257                       # number of replacements
system.cpu0.dcache.tags.tagsinuse                1024                       # Cycle average of tags in use
system.cpu0.dcache.tags.total_refs            1081630                       # Total number of references to valid blocks.
system.cpu0.dcache.tags.sampled_refs            14257                       # Sample count of references to valid blocks.
system.cpu0.dcache.tags.avg_refs            75.866592                       # Average number of references to valid blocks.
system.cpu0.dcache.tags.warmup_cycle                0                       # Cycle when the warmup percentage was hit.
system.cpu0.dcache.tags.occ_blocks::cpu0.data         1024                       # Average occupied blocks per requestor
system.cpu0.dcache.tags.occ_percent::cpu0.data            1                       # Average percentage of cache occupancy
system.cpu0.dcache.tags.occ_percent::total            1                       # Average percentage of cache occupancy
system.cpu0.dcache.tags.occ_task_id_blocks::1024         1024                       # Occupied blocks per task id
system.cpu0.dcache.tags.age_task_id_blocks_1024::0            9                       # Occupied blocks per task id
system.cpu0.dcache.tags.age_task_id_blocks_1024::1           83                       # Occupied blocks per task id
system.cpu0.dcache.tags.age_task_id_blocks_1024::2          682                       # Occupied blocks per task id
system.cpu0.dcache.tags.age_task_id_blocks_1024::3           31                       # Occupied blocks per task id
system.cpu0.dcache.tags.age_task_id_blocks_1024::4          219                       # Occupied blocks per task id
system.cpu0.dcache.tags.occ_task_id_percent::1024            1                       # Percentage of cache occupancy per task id
system.cpu0.dcache.tags.tag_accesses         42343077                       # Number of tag accesses
system.cpu0.dcache.tags.data_accesses        42343077                       # Number of data accesses
system.cpu0.dcache.pwrStateResidencyTicks::UNDEFINED  15267344125                       # Cumulative time (in ticks) in various power states
system.cpu0.dcache.ReadReq_hits::cpu0.data      8474655                       # number of ReadReq hits
system.cpu0.dcache.ReadReq_hits::total        8474655                       # number of ReadReq hits
system.cpu0.dcache.WriteReq_hits::cpu0.data      2093198                       # number of WriteReq hits
system.cpu0.dcache.WriteReq_hits::total       2093198                       # number of WriteReq hits
system.cpu0.dcache.demand_hits::cpu0.data     10567853                       # number of demand (read+write) hits
system.cpu0.dcache.demand_hits::total        10567853                       # number of demand (read+write) hits
system.cpu0.dcache.overall_hits::cpu0.data     10567853                       # number of overall hits
system.cpu0.dcache.overall_hits::total       10567853                       # number of overall hits
system.cpu0.dcache.ReadReq_misses::cpu0.data        14352                       # number of ReadReq misses
system.cpu0.dcache.ReadReq_misses::total        14352                       # number of ReadReq misses
system.cpu0.dcache.demand_misses::cpu0.data        14352                       # number of demand (read+write) misses
system.cpu0.dcache.demand_misses::total         14352                       # number of demand (read+write) misses
system.cpu0.dcache.overall_misses::cpu0.data        14352                       # number of overall misses
system.cpu0.dcache.overall_misses::total        14352                       # number of overall misses
system.cpu0.dcache.ReadReq_miss_latency::cpu0.data   1405238000                       # number of ReadReq miss cycles
system.cpu0.dcache.ReadReq_miss_latency::total   1405238000                       # number of ReadReq miss cycles
system.cpu0.dcache.demand_miss_latency::cpu0.data   1405238000                       # number of demand (read+write) miss cycles
system.cpu0.dcache.demand_miss_latency::total   1405238000                       # number of demand (read+write) miss cycles
system.cpu0.dcache.overall_miss_latency::cpu0.data   1405238000                       # number of overall miss cycles
system.cpu0.dcache.overall_miss_latency::total   1405238000                       # number of overall miss cycles
system.cpu0.dcache.ReadReq_accesses::cpu0.data      8489007                       # number of ReadReq accesses(hits+misses)
system.cpu0.dcache.ReadReq_accesses::total      8489007                       # number of ReadReq accesses(hits+misses)
system.cpu0.dcache.WriteReq_accesses::cpu0.data      2093198                       # number of WriteReq accesses(hits+misses)
system.cpu0.dcache.WriteReq_accesses::total      2093198                       # number of WriteReq accesses(hits+misses)
system.cpu0.dcache.demand_accesses::cpu0.data     10582205                       # number of demand (read+write) accesses
system.cpu0.dcache.demand_accesses::total     10582205                       # number of demand (read+write) accesses
system.cpu0.dcache.overall_accesses::cpu0.data     10582205                       # number of overall (read+write) accesses
system.cpu0.dcache.overall_accesses::total     10582205                       # number of overall (read+write) accesses
system.cpu0.dcache.ReadReq_miss_rate::cpu0.data     0.001691                       # miss rate for ReadReq accesses
system.cpu0.dcache.ReadReq_miss_rate::total     0.001691                       # miss rate for ReadReq accesses
system.cpu0.dcache.demand_miss_rate::cpu0.data     0.001356                       # miss rate for demand accesses
system.cpu0.dcache.demand_miss_rate::total     0.001356                       # miss rate for demand accesses
system.cpu0.dcache.overall_miss_rate::cpu0.data     0.001356                       # miss rate for overall accesses
system.cpu0.dcache.overall_miss_rate::total     0.001356                       # miss rate for overall accesses
system.cpu0.dcache.ReadReq_avg_miss_latency::cpu0.data 97912.346711                       # average ReadReq miss latency
system.cpu0.dcache.ReadReq_avg_miss_latency::total 97912.346711                       # average ReadReq miss latency
system.cpu0.dcache.demand_avg_miss_latency::cpu0.data 97912.346711                       # average overall miss latency
system.cpu0.dcache.demand_avg_miss_latency::total 97912.346711                       # average overall miss latency
system.cpu0.dcache.overall_avg_miss_latency::cpu0.data 97912.346711                       # average overall miss latency
system.cpu0.dcache.overall_avg_miss_latency::total 97912.346711                       # average overall miss latency
system.cpu0.dcache.blocked_cycles::no_mshrs            0                       # number of cycles access was blocked
system.cpu0.dcache.blocked_cycles::no_targets            0                       # number of cycles access was blocked
system.cpu0.dcache.blocked::no_mshrs                0                       # number of cycles access was blocked
system.cpu0.dcache.blocked::no_targets              0                       # number of cycles access was blocked
system.cpu0.dcache.avg_blocked_cycles::no_mshrs          nan                       # average number of cycles each access was blocked
system.cpu0.dcache.avg_blocked_cycles::no_targets          nan                       # average number of cycles each access was blocked
system.cpu0.dcache.writebacks::writebacks        13392                       # number of writebacks
system.cpu0.dcache.writebacks::total            13392                       # number of writebacks
system.cpu0.dcache.ReadReq_mshr_hits::cpu0.data           95                       # number of ReadReq MSHR hits
system.cpu0.dcache.ReadReq_mshr_hits::total           95                       # number of ReadReq MSHR hits
system.cpu0.dcache.demand_mshr_hits::cpu0.data           95                       # number of demand (read+write) MSHR hits
system.cpu0.dcache.demand_mshr_hits::total           95                       # number of demand (read+write) MSHR hits
system.cpu0.dcache.overall_mshr_hits::cpu0.data           95                       # number of overall MSHR hits
system.cpu0.dcache.overall_mshr_hits::total           95                       # number of overall MSHR hits
system.cpu0.dcache.ReadReq_mshr_misses::cpu0.data        14257                       # number of ReadReq MSHR misses
[...]
system.l2.tags.sampled_refs                     14229                       # Sample count of references to valid blocks.
system.l2.tags.avg_refs                      1.000633                       # Average number of references to valid blocks.
system.l2.tags.warmup_cycle                         0                       # Cycle when the warmup percentage was hit.
system.l2.tags.occ_blocks::cpu0.data            49152                       # Average occupied blocks per requestor
system.l2.tags.occ_percent::cpu0.data               1                       # Average percentage of cache occupancy
system.l2.tags.occ_percent::total                   1                       # Average percentage of cache occupancy
system.l2.tags.occ_task_id_blocks::1024         49152                       # Occupied blocks per task id
system.l2.tags.age_task_id_blocks_1024::0            9                       # Occupied blocks per task id
system.l2.tags.age_task_id_blocks_1024::1           83                       # Occupied blocks per task id
system.l2.tags.age_task_id_blocks_1024::2          840                       # Occupied blocks per task id
system.l2.tags.age_task_id_blocks_1024::3         8375                       # Occupied blocks per task id
system.l2.tags.age_task_id_blocks_1024::4        39845                       # Occupied blocks per task id
system.l2.tags.occ_task_id_percent::1024            1                       # Percentage of cache occupancy per task id
system.l2.tags.tag_accesses                    356397                       # Number of tag accesses
system.l2.tags.data_accesses                   356397                       # Number of data accesses
system.l2.pwrStateResidencyTicks::UNDEFINED  15267344125                       # Cumulative time (in ticks) in various power states
system.l2.WritebackDirty_hits::writebacks        13392                       # number of WritebackDirty hits
system.l2.WritebackDirty_hits::total            13392                       # number of WritebackDirty hits
system.l2.ReadSharedReq_hits::cpu0.data            28                       # number of ReadSharedReq hits
system.l2.ReadSharedReq_hits::total                28                       # number of ReadSharedReq hits
system.l2.demand_hits::cpu0.data                   28                       # number of demand (read+write) hits
system.l2.demand_hits::total                       28                       # number of demand (read+write) hits
system.l2.overall_hits::cpu0.data                  28                       # number of overall hits
system.l2.overall_hits::total                      28                       # number of overall hits
system.l2.ReadSharedReq_misses::cpu0.data        14229                       # number of ReadSharedReq misses
system.l2.ReadSharedReq_misses::total           14229                       # number of ReadSharedReq misses
system.l2.demand_misses::cpu0.data              14229                       # number of demand (read+write) misses
system.l2.demand_misses::total                  14229                       # number of demand (read+write) misses
system.l2.overall_misses::cpu0.data             14229                       # number of overall misses
system.l2.overall_misses::total                 14229                       # number of overall misses
system.l2.ReadSharedReq_miss_latency::cpu0.data   1363449500                       # number of ReadSharedReq miss cycles
system.l2.ReadSharedReq_miss_latency::total   1363449500                       # number of ReadSharedReq miss cycles
system.l2.demand_miss_latency::cpu0.data   1363449500                       # number of demand (read+write) miss cycles
system.l2.demand_miss_latency::total       1363449500                       # number of demand (read+write) miss cycles
system.l2.overall_miss_latency::cpu0.data   1363449500                       # number of overall miss cycles
system.l2.overall_miss_latency::total      1363449500                       # number of overall miss cycles
system.l2.WritebackDirty_accesses::writebacks        13392                       # number of WritebackDirty accesses(hits+misses)
system.l2.WritebackDirty_accesses::total        13392                       # number of WritebackDirty accesses(hits+misses)
system.l2.ReadSharedReq_accesses::cpu0.data        14257                       # number of ReadSharedReq accesses(hits+misses)
system.l2.ReadSharedReq_accesses::total         14257                       # number of ReadSharedReq accesses(hits+misses)
system.l2.demand_accesses::cpu0.data            14257                       # number of demand (read+write) accesses
system.l2.demand_accesses::total                14257                       # number of demand (read+write) accesses
system.l2.overall_accesses::cpu0.data           14257                       # number of overall (read+write) accesses
system.l2.overall_accesses::total               14257                       # number of overall (read+write) accesses
system.l2.ReadSharedReq_miss_rate::cpu0.data     0.998036                       # miss rate for ReadSharedReq accesses
system.l2.ReadSharedReq_miss_rate::total     0.998036                       # miss rate for ReadSharedReq accesses
system.l2.demand_miss_rate::cpu0.data        0.998036                       # miss rate for demand accesses
system.l2.demand_miss_rate::total            0.998036                       # miss rate for demand accesses
system.l2.overall_miss_rate::cpu0.data       0.998036                       # miss rate for overall accesses
system.l2.overall_miss_rate::total           0.998036                       # miss rate for overall accesses
system.l2.ReadSharedReq_avg_miss_latency::cpu0.data 95821.877855                       # average ReadSharedReq miss latency
system.l2.ReadSharedReq_avg_miss_latency::total 95821.877855                       # average ReadSharedReq miss latency
system.l2.demand_avg_miss_latency::cpu0.data 95821.877855                       # average overall miss latency
system.l2.demand_avg_miss_latency::total 95821.877855                       # average overall miss latency
system.l2.overall_avg_miss_latency::cpu0.data 95821.877855                       # average overall miss latency
system.l2.overall_avg_miss_latency::total 95821.877855                       # average overall miss latency
system.l2.blocked_cycles::no_mshrs                  0                       # number of cycles access was blocked
system.l2.blocked_cycles::no_targets                0                       # number of cycles access was blocked
system.l2.blocked::no_mshrs                         0                       # number of cycles access was blocked
system.l2.blocked::no_targets                       0                       # number of cycles access was blocked
system.l2.avg_blocked_cycles::no_mshrs            nan                       # average number of cycles each access was blocked
system.l2.avg_blocked_cycles::no_targets          nan                       # average number of cycles each access was blocked
system.l2.writebacks::writebacks                13403                       # number of writebacks
system.l2.writebacks::total                     13403                       # number of writebacks
system.l2.CleanEvict_mshr_misses::writebacks            2                       # number of CleanEvict MSHR misses
system.l2.CleanEvict_mshr_misses::total             2                       # number of CleanEvict MSHR misses
system.l2.ReadSharedReq_mshr_misses::cpu0.data        14229                       # number of ReadSharedReq MSHR misses
system.l2.ReadSharedReq_mshr_misses::total        14229                       # number of ReadSharedReq MSHR misses
system.l2.demand_mshr_misses::cpu0.data         14229                       # number of demand (read+write) MSHR misses
system.l2.demand_mshr_misses::total             14229                       # number of demand (read+write) MSHR misses
system.l2.overall_mshr_misses::cpu0.data        14229                       # number of overall MSHR misses
system.l2.overall_mshr_misses::total            14229                       # number of overall MSHR misses
system.l2.ReadSharedReq_mshr_miss_latency::cpu0.data   1221159500                       # number of ReadSharedReq MSHR miss cycles
system.l2.ReadSharedReq_mshr_miss_latency::total   1221159500                       # number of ReadSharedReq MSHR miss cycles
system.l2.demand_mshr_miss_latency::cpu0.data   1221159500                       # number of demand (read+write) MSHR miss cycles
system.l2.demand_mshr_miss_latency::total   1221159500                       # number of demand (read+write) MSHR miss cycles
system.l2.overall_mshr_miss_latency::cpu0.data   1221159500                       # number of overall MSHR miss cycles
system.l2.overall_mshr_miss_latency::total   1221159500                       # number of overall MSHR miss cycles
system.l2.CleanEvict_mshr_miss_rate::writebacks          inf                       # mshr miss rate for CleanEvict accesses
system.l2.CleanEvict_mshr_miss_rate::total          inf                       # mshr miss rate for CleanEvict accesses
system.l2.ReadSharedReq_mshr_miss_rate::cpu0.data     0.998036                       # mshr miss rate for ReadSharedReq accesses
system.l2.ReadSharedReq_mshr_miss_rate::total     0.998036                       # mshr miss rate for ReadSharedReq accesses
system.l2.demand_mshr_miss_rate::cpu0.data     0.998036                       # mshr miss rate for demand accesses
system.l2.demand_mshr_miss_rate::total       0.998036                       # mshr miss rate for demand accesses
system.l2.overall_mshr_miss_rate::cpu0.data     0.998036                       # mshr miss rate for overall accesses
system.l2.overall_mshr_miss_rate::total      0.998036                       # mshr miss rate for overall accesses
system.l2.ReadSharedReq_avg_mshr_miss_latency::cpu0.data 85821.877855                       # average ReadSharedReq mshr miss latency
system.l2.ReadSharedReq_avg_mshr_miss_latency::total 85821.877855                       # average ReadSharedReq mshr miss latency
system.l2.demand_avg_mshr_miss_latency::cpu0.data 85821.877855                       # average overall mshr miss latency
system.l2.demand_avg_mshr_miss_latency::total 85821.877855                       # average overall mshr miss latency
system.l2.overall_avg_mshr_miss_latency::cpu0.data 85821.877855                       # average overall mshr miss latency
system.l2.overall_avg_mshr_miss_latency::total 85821.877855                       # average overall mshr miss latency
system.membus.snoop_filter.tot_requests         28459                       # Total number of requests made to the snoop filter.
system.membus.snoop_filter.hit_single_requests        14230                       # Number of requests hitting in the snoop filter with a single holder of the requested data.
system.membus.snoop_filter.hit_multi_requests            0                       # Number of requests hitting in the snoop filter with multiple (>1) holders of the requested data.
system.membus.snoop_filter.tot_snoops               0                       # Total number of snoops made to the snoop filter.
system.membus.snoop_filter.hit_single_snoops            0                       # Number of snoops hitting in the snoop filter with a single holder of the requested data.
system.membus.snoop_filter.hit_multi_snoops            0                       # Number of snoops hitting in the snoop filter with multiple (>1) holders of the requested data.
system.membus.pwrStateResidencyTicks::UNDEFINED  15267344125                       # Cumulative time (in ticks) in various power states
system.membus.trans_dist::ReadResp              14229                       # Transaction distribution
system.membus.trans_dist::WritebackDirty        13403                       # Transaction distribution
system.membus.trans_dist::CleanEvict              827                       # Transaction distribution
system.membus.trans_dist::ReadSharedReq         14229                       # Transaction distribution
system.membus.pkt_count_system.l2.mem_side::system.mem_ctrls.port        42688                       # Packet count per connected master and slave (bytes)
system.membus.pkt_count_system.l2.mem_side::total        42688                       # Packet count per connected master and slave (bytes)
system.membus.pkt_count::total                  42688                       # Packet count per connected master and slave (bytes)
system.membus.pkt_size_system.l2.mem_side::system.mem_ctrls.port      1768448                       # Cumulative packet size per connected master and slave (bytes)
system.membus.pkt_size_system.l2.mem_side::total      1768448                       # Cumulative packet size per connected master and slave (bytes)
system.membus.pkt_size::total                 1768448                       # Cumulative packet size per connected master and slave (bytes)
system.membus.snoops                                0                       # Total snoops (count)
system.membus.snoopTraffic                          0                       # Total snoop traffic (bytes)
system.membus.snoop_fanout::samples             14229                       # Request fanout histogram
system.membus.snoop_fanout::mean                    0                       # Request fanout histogram
system.membus.snoop_fanout::stdev                   0                       # Request fanout histogram
system.membus.snoop_fanout::underflows              0      0.00%      0.00% # Request fanout histogram
system.membus.snoop_fanout::0                   14229    100.00%    100.00% # Request fanout histogram
system.membus.snoop_fanout::1                       0      0.00%    100.00% # Request fanout histogram
system.membus.snoop_fanout::overflows               0      0.00%    100.00% # Request fanout histogram
system.membus.snoop_fanout::min_value               0                       # Request fanout histogram
system.membus.snoop_fanout::max_value               0                       # Request fanout histogram
system.membus.snoop_fanout::total               14229                       # Request fanout histogram
system.membus.reqLayer8.occupancy            85627000                       # Layer occupancy (ticks)
system.membus.reqLayer8.utilization               0.6                       # Layer utilization (%)
system.membus.respLayer1.occupancy           75791500                       # Layer occupancy (ticks)
system.membus.respLayer1.utilization              0.5                       # Layer utilization (%)
system.tol2bus.snoop_filter.tot_requests        28514                       # Total number of requests made to the snoop filter.
system.tol2bus.snoop_filter.hit_single_requests        14257                       # Number of requests hitting in the snoop filter with a single holder of the requested data.
system.tol2bus.snoop_filter.hit_multi_requests            0                       # Number of requests hitting in the snoop filter with multiple (>1) holders of the requested data.
system.tol2bus.snoop_filter.tot_snoops              1                       # Total number of snoops made to the snoop filter.
system.tol2bus.snoop_filter.hit_single_snoops            1                       # Number of snoops hitting in the snoop filter with a single holder of the requested data.
system.tol2bus.snoop_filter.hit_multi_snoops            0                       # Number of snoops hitting in the snoop filter with multiple (>1) holders of the requested data.
system.tol2bus.pwrStateResidencyTicks::UNDEFINED  15267344125                       # Cumulative time (in ticks) in various power states
system.tol2bus.trans_dist::ReadResp             14257                       # Transaction distribution
system.tol2bus.trans_dist::WritebackDirty        26795                       # Transaction distribution
system.tol2bus.trans_dist::CleanEvict            1691                       # Transaction distribution
system.tol2bus.trans_dist::ReadSharedReq        14257                       # Transaction distribution
system.tol2bus.pkt_count_system.cpu0.dcache.mem_side::system.l2.cpu_side        42771                       # Packet count per connected master and slave (bytes)
system.tol2bus.pkt_count::total                 42771                       # Packet count per connected master and slave (bytes)
system.tol2bus.pkt_size_system.cpu0.dcache.mem_side::system.l2.cpu_side      1769536                       # Cumulative packet size per connected master and slave (bytes)
system.tol2bus.pkt_size::total                1769536                       # Cumulative packet size per connected master and slave (bytes)
system.tol2bus.snoops                           14229                       # Total snoops (count)
system.tol2bus.snoopTraffic                    857792                       # Total snoop traffic (bytes)
system.tol2bus.snoop_fanout::samples            28486                       # Request fanout histogram
system.tol2bus.snoop_fanout::mean            0.000035                       # Request fanout histogram
system.tol2bus.snoop_fanout::stdev           0.005925                       # Request fanout histogram
system.tol2bus.snoop_fanout::underflows             0      0.00%      0.00% # Request fanout histogram
system.tol2bus.snoop_fanout::0                  28485    100.00%    100.00% # Request fanout histogram
system.tol2bus.snoop_fanout::1                      1      0.00%    100.00% # Request fanout histogram
system.tol2bus.snoop_fanout::2                      0      0.00%    100.00% # Request fanout histogram
system.tol2bus.snoop_fanout::3                      0      0.00%    100.00% # Request fanout histogram
system.tol2bus.snoop_fanout::4                      0      0.00%    100.00% # Request fanout histogram
system.tol2bus.snoop_fanout::5                      0      0.00%    100.00% # Request fanout histogram
system.tol2bus.snoop_fanout::6                      0      0.00%    100.00% # Request fanout histogram
system.tol2bus.snoop_fanout::7                      0      0.00%    100.00% # Request fanout histogram
system.tol2bus.snoop_fanout::8                      0      0.00%    100.00% # Request fanout histogram
system.tol2bus.snoop_fanout::9                      0      0.00%    100.00% # Request fanout histogram
system.tol2bus.snoop_fanout::10                     0      0.00%    100.00% # Request fanout histogram
system.tol2bus.snoop_fanout::11                     0      0.00%    100.00% # Request fanout histogram
system.tol2bus.snoop_fanout::12                     0      0.00%    100.00% # Request fanout histogram
system.tol2bus.snoop_fanout::13                     0      0.00%    100.00% # Request fanout histogram
system.tol2bus.snoop_fanout::14                     0      0.00%    100.00% # Request fanout histogram
system.tol2bus.snoop_fanout::15                     0      0.00%    100.00% # Request fanout histogram
system.tol2bus.snoop_fanout::16                     0      0.00%    100.00% # Request fanout histogram
system.tol2bus.snoop_fanout::overflows              0      0.00%    100.00% # Request fanout histogram
system.tol2bus.snoop_fanout::min_value              0                       # Request fanout histogram
system.tol2bus.snoop_fanout::max_value              1                       # Request fanout histogram
system.tol2bus.snoop_fanout::total              28486                       # Request fanout histogram
system.tol2bus.reqLayer0.occupancy           27649000                       # Layer occupancy (ticks)
system.tol2bus.reqLayer0.utilization              0.2                       # Layer utilization (%)
system.tol2bus.respLayer1.occupancy          21385500                       # Layer occupancy (ticks)
system.tol2bus.respLayer1.utilization             0.1                       # Layer utilization (%)

---------- End Simulation Statistics   ----------
