
---------- Begin Simulation Statistics ----------
sim_seconds                                  0.015267                       # Number of seconds simulated
sim_ticks                                 15267344125                       # Number of ticks simulated
final_tick                               6595492662000                       # Number of ticks from beginning of simulation (restored from checkpoints and never reset)
sim_freq                                 1000000000000                       # Frequency of simulated ticks
host_inst_rate                              128378750                       # Simulator instruction rate (inst/s)
host_op_rate                                239113329                       # Simulator op (including micro ops) rate (op/s)
host_tick_rate                              328068755                       # Simulator tick rate (ticks/s)
host_mem_usage                                2332668                       # Number of bytes of host memory used
host_seconds                                    46.54                       # Real time elapsed on the host
sim_insts                                  5974362755                       # Number of instructions simulated
sim_ops                                   11127620966                       # Number of ops (including micro ops) simulated
system.voltage_domain.voltage                       1                       # Voltage in Volts
system.clk_domain.clock                          1000                       # Clock period in ticks
system.mem_ctrls.pwrStateResidencyTicks::UNDEFINED  15267344125                       # Cumulative time (in ticks) in various power states
system.mem_ctrls.bytes_read::cpu0.inst            128                       # Number of bytes read from this memory
system.mem_ctrls.bytes_read::cpu0.data       11943424                       # Number of bytes read from this memory
system.mem_ctrls.bytes_read::total           11943552                       # Number of bytes read from this memory
system.mem_ctrls.bytes_inst_read::cpu0.inst          128                       # Number of instructions bytes read from this memory
system.mem_ctrls.bytes_inst_read::total           128                       # Number of instructions bytes read from this memory
system.mem_ctrls.bytes_written::writebacks        23104                       # Number of bytes written to this memory
system.mem_ctrls.bytes_written::total           23104                       # Number of bytes written to this memory
system.mem_ctrls.num_reads::cpu0.inst               2                       # Number of read requests responded to by this memory
system.mem_ctrls.num_reads::cpu0.data          186616                       # Number of read requests responded to by this memory
system.mem_ctrls.num_reads::total              186618                       # Number of read requests responded to by this memory
system.mem_ctrls.num_writes::writebacks           361                       # Number of write requests responded to by this memory
system.mem_ctrls.num_writes::total                361                       # Number of write requests responded to by this memory
system.mem_ctrls.bw_read::cpu0.inst              8384                       # Total read bandwidth from this memory (bytes/s)
system.mem_ctrls.bw_read::cpu0.data         782285635                       # Total read bandwidth from this memory (bytes/s)
system.mem_ctrls.bw_read::total             782294019                       # Total read bandwidth from this memory (bytes/s)
system.mem_ctrls.bw_inst_read::cpu0.inst         8384                       # Instruction read bandwidth from this memory (bytes/s)
system.mem_ctrls.bw_inst_read::total             8384                       # Instruction read bandwidth from this memory (bytes/s)
system.mem_ctrls.bw_write::writebacks         1513295                       # Write bandwidth from this memory (bytes/s)
system.mem_ctrls.bw_write::total              1513295                       # Write bandwidth from this memory (bytes/s)
system.mem_ctrls.bw_total::writebacks         1513295                       # Total bandwidth to/from this memory (bytes/s)
system.mem_ctrls.bw_total::cpu0.inst             8384                       # Total bandwidth to/from this memory (bytes/s)
system.mem_ctrls.bw_total::cpu0.data        782285635                       # Total bandwidth to/from this memory (bytes/s)
system.mem_ctrls.bw_total::total            783807315                       # Total bandwidth to/from this memory (bytes/s)
system.mem_ctrls.readReqs                      186619                       # Number of read requests accepted
system.mem_ctrls.writeReqs                        361                       # Number of write requests accepted
system.mem_ctrls.readBursts                    186619                       # Number of DRAM read bursts, including those serviced by the write queue
system.mem_ctrls.writeBursts                      361                       # Number of DRAM write bursts, including those merged in the write queue
system.mem_ctrls.bytesReadDRAM               11940416                       # Total number of bytes read from DRAM
system.mem_ctrls.bytesReadWrQ                    3200                       # Total number of bytes read from write queue
system.mem_ctrls.bytesWritten                   22528                       # Total number of bytes written to DRAM
system.mem_ctrls.bytesReadSys                11943616                       # Total read bytes from the system interface side
system.mem_ctrls.bytesWrittenSys                23104                       # Total written bytes from the system interface side
system.mem_ctrls.servicedByWrQ                     50                       # Number of DRAM read bursts serviced by the write queue
system.mem_ctrls.mergedWrBursts                     0                       # Number of DRAM write bursts merged with an existing one
system.mem_ctrls.neitherReadNorWriteReqs            0                       # Number of requests that are neither read nor write
system.mem_ctrls.perBankRdBursts::0             11516                       # Per bank write bursts
system.mem_ctrls.perBankRdBursts::1             11676                       # Per bank write bursts
system.mem_ctrls.perBankRdBursts::2             11436                       # Per bank write bursts
system.mem_ctrls.perBankRdBursts::3             11436                       # Per bank write bursts
system.mem_ctrls.perBankRdBursts::4             11563                       # Per bank write bursts
system.mem_ctrls.perBankRdBursts::5             11576                       # Per bank write bursts
system.mem_ctrls.perBankRdBursts::6             11671                       # Per bank write bursts
system.mem_ctrls.perBankRdBursts::7             11504                       # Per bank write bursts
system.mem_ctrls.perBankRdBursts::8             11630                       # Per bank write bursts
system.mem_ctrls.perBankRdBursts::9             11455                       # Per bank write bursts
system.mem_ctrls.perBankRdBursts::10            11637                       # Per bank write bursts
system.mem_ctrls.perBankRdBursts::11            11868                       # Per bank write bursts
system.mem_ctrls.perBankRdBursts::12            11971                       # Per bank write bursts
system.mem_ctrls.perBankRdBursts::13            12197                       # Per bank write bursts
system.mem_ctrls.perBankRdBursts::14            11675                       # Per bank write bursts
system.mem_ctrls.perBankRdBursts::15            11758                       # Per bank write bursts
system.mem_ctrls.perBankWrBursts::0                10                       # Per bank write bursts
system.mem_ctrls.perBankWrBursts::1                 0                       # Per bank write bursts
system.mem_ctrls.perBankWrBursts::2                 0                       # Per bank write bursts
system.mem_ctrls.perBankWrBursts::3                 0                       # Per bank write bursts
system.mem_ctrls.perBankWrBursts::4                 0                       # Per bank write bursts
system.mem_ctrls.perBankWrBursts::5                 0                       # Per bank write bursts
system.mem_ctrls.perBankWrBursts::6                 0                       # Per bank write bursts
system.mem_ctrls.perBankWrBursts::7                 8                       # Per bank write bursts
system.mem_ctrls.perBankWrBursts::8                14                       # Per bank write bursts
system.mem_ctrls.perBankWrBursts::9                 0                       # Per bank write bursts
system.mem_ctrls.perBankWrBursts::10                0                       # Per bank write bursts
system.mem_ctrls.perBankWrBursts::11                1                       # Per bank write bursts
system.mem_ctrls.perBankWrBursts::12               92                       # Per bank write bursts
system.mem_ctrls.perBankWrBursts::13              109                       # Per bank write bursts
system.mem_ctrls.perBankWrBursts::14              116                       # Per bank write bursts
system.mem_ctrls.perBankWrBursts::15                2                       # Per bank write bursts
system.mem_ctrls.numRdRetry                         0                       # Number of times read queue was full causing retry
system.mem_ctrls.numWrRetry                         0                       # Number of times write queue was full causing retry
system.mem_ctrls.totGap                   15267427000                       # Total gap between requests
system.mem_ctrls.readPktSize::0                     0                       # Read request sizes (log2)
system.mem_ctrls.readPktSize::1                     0                       # Read request sizes (log2)
system.mem_ctrls.readPktSize::2                     0                       # Read request sizes (log2)
system.mem_ctrls.readPktSize::3                     0                       # Read request sizes (log2)
system.mem_ctrls.readPktSize::4                     0                       # Read request sizes (log2)
system.mem_ctrls.readPktSize::5                     0                       # Read request sizes (log2)
system.mem_ctrls.readPktSize::6                186619                       # Read request sizes (log2)
system.mem_ctrls.writePktSize::0                    0                       # Write request sizes (log2)
system.mem_ctrls.writePktSize::1                    0                       # Write request sizes (log2)
system.mem_ctrls.writePktSize::2                    0                       # Write request sizes (log2)
system.mem_ctrls.writePktSize::3                    0                       # Write request sizes (log2)
system.mem_ctrls.writePktSize::4                    0                       # Write request sizes (log2)
system.mem_ctrls.writePktSize::5                    0                       # Write request sizes (log2)
system.mem_ctrls.writePktSize::6                  361                       # Write request sizes (log2)
system.mem_ctrls.rdQLenPdf::0                  142443                       # What read queue length does an incoming req see
system.mem_ctrls.rdQLenPdf::1                   41301                       # What read queue length does an incoming req see
system.mem_ctrls.rdQLenPdf::2                    2760                       # What read queue length does an incoming req see
system.mem_ctrls.rdQLenPdf::3                      65                       # What read queue length does an incoming req see
system.mem_ctrls.rdQLenPdf::4                       0                       # What read queue length does an incoming req see
system.mem_ctrls.rdQLenPdf::5                       0                       # What read queue length does an incoming req see
system.mem_ctrls.rdQLenPdf::6                       0                       # What read queue length does an incoming req see
system.mem_ctrls.rdQLenPdf::7                       0                       # What read queue length does an incoming req see
system.mem_ctrls.rdQLenPdf::8                       0                       # What read queue length does an incoming req see
system.mem_ctrls.rdQLenPdf::9                       0                       # What read queue length does an incoming req see
system.mem_ctrls.rdQLenPdf::10                      0                       # What read queue length does an incoming req see
system.mem_ctrls.rdQLenPdf::11                      0                       # What read queue length does an incoming req see
system.mem_ctrls.rdQLenPdf::12                      0                       # What read queue length does an incoming req see
system.mem_ctrls.rdQLenPdf::13                      0                       # What read queue length does an incoming req see
system.mem_ctrls.rdQLenPdf::14                      0                       # What read queue length does an incoming req see
system.mem_ctrls.rdQLenPdf::15                      0                       # What read queue length does an incoming req see
system.mem_ctrls.rdQLenPdf::16                      0                       # What read queue length does an incoming req see
system.mem_ctrls.rdQLenPdf::17                      0                       # What read queue length does an incoming req see
system.mem_ctrls.rdQLenPdf::18                      0                       # What read queue length does an incoming req see
system.mem_ctrls.rdQLenPdf::19                      0                       # What read queue length does an incoming req see
system.mem_ctrls.rdQLenPdf::20                      0                       # What read queue length does an incoming req see
system.mem_ctrls.rdQLenPdf::21                      0                       # What read queue length does an incoming req see
system.mem_ctrls.rdQLenPdf::22                      0                       # What read queue length does an incoming req see
system.mem_ctrls.rdQLenPdf::23                      0                       # What read queue length does an incoming req see
system.mem_ctrls.rdQLenPdf::24                      0                       # What read queue length does an incoming req see
system.mem_ctrls.rdQLenPdf::25                      0                       # What read queue length does an incoming req see
system.mem_ctrls.rdQLenPdf::26                      0                       # What read queue length does an incoming req see
system.mem_ctrls.rdQLenPdf::27                      0                       # What read queue length does an incoming req see
system.mem_ctrls.rdQLenPdf::28                      0                       # What read queue length does an incoming req see
system.mem_ctrls.rdQLenPdf::29                      0                       # What read queue length does an incoming req see
system.mem_ctrls.rdQLenPdf::30                      0                       # What read queue length does an incoming req see
system.mem_ctrls.rdQLenPdf::31                      0                       # What read queue length does an incoming req see
system.mem_ctrls.wrQLenPdf::0                       0                       # What write queue length does an incoming req see
system.mem_ctrls.wrQLenPdf::1                       0                       # What write queue length does an incoming req see
system.mem_ctrls.wrQLenPdf::2                       0                       # What write queue length does an incoming req see
system.mem_ctrls.wrQLenPdf::3                       0                       # What write queue length does an incoming req see
system.mem_ctrls.wrQLenPdf::4                       0                       # What write queue length does an incoming req see
system.mem_ctrls.wrQLenPdf::5                       0                       # What write queue length does an incoming req see
system.mem_ctrls.wrQLenPdf::6                       0                       # What write queue length does an incoming req see
system.mem_ctrls.wrQLenPdf::7                       0                       # What write queue length does an incoming req see
system.mem_ctrls.wrQLenPdf::8                       0                       # What write queue length does an incoming req see
system.mem_ctrls.wrQLenPdf::9                       0                       # What write queue length does an incoming req see
system.mem_ctrls.wrQLenPdf::10                      0                       # What write queue length does an incoming req see
system.mem_ctrls.wrQLenPdf::11                      0                       # What write queue length does an incoming req see
system.mem_ctrls.wrQLenPdf::12                      0                       # What write queue length does an incoming req see
system.mem_ctrls.wrQLenPdf::13                      0                       # What write queue length does an incoming req see
system.mem_ctrls.wrQLenPdf::14                      0                       # What write queue length does an incoming req see
system.mem_ctrls.wrQLenPdf::15                      0                       # What write queue length does an incoming req see
system.mem_ctrls.wrQLenPdf::16                      0                       # What write queue length does an incoming req see
system.mem_ctrls.wrQLenPdf::17                     22                       # What write queue length does an incoming req see
system.mem_ctrls.wrQLenPdf::18                     22                       # What write queue length does an incoming req see
system.mem_ctrls.wrQLenPdf::19                     22                       # What write queue length does an incoming req see
system.mem_ctrls.wrQLenPdf::20                     22                       # What write queue length does an incoming req see
system.mem_ctrls.wrQLenPdf::21                     22                       # What write queue length does an incoming req see
system.mem_ctrls.wrQLenPdf::22                     22                       # What write queue length does an incoming req see
system.mem_ctrls.wrQLenPdf::23                     23                       # What write queue length does an incoming req see
system.mem_ctrls.wrQLenPdf::24                     23                       # What write queue length does an incoming req see
system.mem_ctrls.wrQLenPdf::25                     23                       # What write queue length does an incoming req see
system.mem_ctrls.wrQLenPdf::26                     23                       # What write queue length does an incoming req see
system.mem_ctrls.wrQLenPdf::27                     23                       # What write queue length does an incoming req see
system.mem_ctrls.wrQLenPdf::28                     23                       # What write queue length does an incoming req see
system.mem_ctrls.wrQLenPdf::29                     23                       # What write queue length does an incoming req see
system.mem_ctrls.wrQLenPdf::30                     23                       # What write queue length does an incoming req see
system.mem_ctrls.wrQLenPdf::31                     23                       # What write queue length does an incoming req see
system.mem_ctrls.wrQLenPdf::32                     22                       # What write queue length does an incoming req see
system.mem_ctrls.wrQLenPdf::33                      0                       # What write queue length does an incoming req see
system.mem_ctrls.wrQLenPdf::34                      0                       # What write queue length does an incoming req see
system.mem_ctrls.wrQLenPdf::35                      0                       # What write queue length does an incoming req see
system.mem_ctrls.wrQLenPdf::36                      0                       # What write queue length does an incoming req see
system.mem_ctrls.wrQLenPdf::37                      0                       # What write queue length does an incoming req see
system.mem_ctrls.wrQLenPdf::38                      0                       # What write queue length does an incoming req see
system.mem_ctrls.wrQLenPdf::39                      0                       # What write queue length does an incoming req see
system.mem_ctrls.wrQLenPdf::40                      0                       # What write queue length does an incoming req see
system.mem_ctrls.wrQLenPdf::41                      0                       # What write queue length does an incoming req see
system.mem_ctrls.wrQLenPdf::42                      0                       # What write queue length does an incoming req see
system.mem_ctrls.wrQLenPdf::43                      0                       # What write queue length does an incoming req see
system.mem_ctrls.wrQLenPdf::44                      0                       # What write queue length does an incoming req see
system.mem_ctrls.wrQLenPdf::45                      0                       # What write queue length does an incoming req see
system.mem_ctrls.wrQLenPdf::46                      0                       # What write queue length does an incoming req see
system.mem_ctrls.wrQLenPdf::47                      0                       # What write queue length does an incoming req see
system.mem_ctrls.wrQLenPdf::48                      0                       # What write queue length does an incoming req see
system.mem_ctrls.wrQLenPdf::49                      0                       # What write queue length does an incoming req see
system.mem_ctrls.wrQLenPdf::50                      0                       # What write queue length does an incoming req see
system.mem_ctrls.wrQLenPdf::51                      0                       # What write queue length does an incoming req see
system.mem_ctrls.wrQLenPdf::52                      0                       # What write queue length does an incoming req see
system.mem_ctrls.wrQLenPdf::53                      0                       # What write queue length does an incoming req see
system.mem_ctrls.wrQLenPdf::54                      0                       # What write queue length does an incoming req see
system.mem_ctrls.wrQLenPdf::55                      0                       # What write queue length does an incoming req see
system.mem_ctrls.wrQLenPdf::56                      0                       # What write queue length does an incoming req see
system.mem_ctrls.wrQLenPdf::57                      0                       # What write queue length does an incoming req see
system.mem_ctrls.wrQLenPdf::58                      0                       # What write queue length does an incoming req see
system.mem_ctrls.wrQLenPdf::59                      0                       # What write queue length does an incoming req see
system.mem_ctrls.wrQLenPdf::60                      0                       # What write queue length does an incoming req see
system.mem_ctrls.wrQLenPdf::61                      0                       # What write queue length does an incoming req see
system.mem_ctrls.wrQLenPdf::62                      0                       # What write queue length does an incoming req see
system.mem_ctrls.wrQLenPdf::63                      0                       # What write queue length does an incoming req see
system.mem_ctrls.bytesPerActivate::samples        97478                       # Bytes accessed per row activation
system.mem_ctrls.bytesPerActivate::mean    122.714048                       # Bytes accessed per row activation
system.mem_ctrls.bytesPerActivate::gmean   105.856776                       # Bytes accessed per row activation
system.mem_ctrls.bytesPerActivate::stdev    73.406404                       # Bytes accessed per row activation
system.mem_ctrls.bytesPerActivate::0-127        45473     46.65%     46.65% # Bytes accessed per row activation
system.mem_ctrls.bytesPerActivate::128-255        42564     43.67%     90.31% # Bytes accessed per row activation
system.mem_ctrls.bytesPerActivate::256-383         8274      8.49%     98.80% # Bytes accessed per row activation
system.mem_ctrls.bytesPerActivate::384-511         1046      1.07%     99.88% # Bytes accessed per row activation
system.mem_ctrls.bytesPerActivate::512-639           94      0.10%     99.97% # Bytes accessed per row activation
system.mem_ctrls.bytesPerActivate::640-767           16      0.02%     99.99% # Bytes accessed per row activation
system.mem_ctrls.bytesPerActivate::768-895            3      0.00%     99.99% # Bytes accessed per row activation
system.mem_ctrls.bytesPerActivate::896-1023            4      0.00%    100.00% # Bytes accessed per row activation
system.mem_ctrls.bytesPerActivate::1024-1151            4      0.00%    100.00% # Bytes accessed per row activation
system.mem_ctrls.bytesPerActivate::total        97478                       # Bytes accessed per row activation
system.mem_ctrls.rdPerTurnAround::samples           22                       # Reads before turning the bus around for writes
system.mem_ctrls.rdPerTurnAround::mean           8264                       # Reads before turning the bus around for writes
system.mem_ctrls.rdPerTurnAround::gmean   8096.695099                       # Reads before turning the bus around for writes
system.mem_ctrls.rdPerTurnAround::stdev   1594.179054                       # Reads before turning the bus around for writes
system.mem_ctrls.rdPerTurnAround::3584-4095            1      4.55%      4.55% # Reads before turning the bus around for writes
system.mem_ctrls.rdPerTurnAround::6144-6655            1      4.55%      9.09% # Reads before turning the bus around for writes
system.mem_ctrls.rdPerTurnAround::6656-7167            3     13.64%     22.73% # Reads before turning the bus around for writes
system.mem_ctrls.rdPerTurnAround::7168-7679            1      4.55%     27.27% # Reads before turning the bus around for writes
system.mem_ctrls.rdPerTurnAround::7680-8191            4     18.18%     45.45% # Reads before turning the bus around for writes
system.mem_ctrls.rdPerTurnAround::8192-8703            6     27.27%     72.73% # Reads before turning the bus around for writes
system.mem_ctrls.rdPerTurnAround::8704-9215            1      4.55%     77.27% # Reads before turning the bus around for writes
system.mem_ctrls.rdPerTurnAround::9216-9727            2      9.09%     86.36% # Reads before turning the bus around for writes
system.mem_ctrls.rdPerTurnAround::10752-11263            3     13.64%    100.00% # Reads before turning the bus around for writes
system.mem_ctrls.rdPerTurnAround::total            22                       # Reads before turning the bus around for writes
system.mem_ctrls.wrPerTurnAround::samples           22                       # Writes before turning the bus around for reads
system.mem_ctrls.wrPerTurnAround::mean             16                       # Writes before turning the bus around for reads
system.mem_ctrls.wrPerTurnAround::gmean     16.000000                       # Writes before turning the bus around for reads
system.mem_ctrls.wrPerTurnAround::16               22    100.00%    100.00% # Writes before turning the bus around for reads
system.mem_ctrls.wrPerTurnAround::total            22                       # Writes before turning the bus around for reads
system.mem_ctrls.totQLat                   4629233500                       # Total ticks spent queuing
system.mem_ctrls.totMemAccLat              8127402250                       # Total ticks spent from burst creation until serviced by the DRAM
system.mem_ctrls.totBusLat                  932845000                       # Total ticks spent in databus transfers
system.mem_ctrls.avgQLat                     24812.45                       # Average queueing delay per DRAM burst
system.mem_ctrls.avgBusLat                    5000.00                       # Average bus latency per DRAM burst
system.mem_ctrls.avgMemAccLat                43562.45                       # Average memory access latency per DRAM burst
system.mem_ctrls.avgRdBW                       782.09                       # Average DRAM read bandwidth in MiByte/s
system.mem_ctrls.avgWrBW                         1.48                       # Average achieved write bandwidth in MiByte/s
system.mem_ctrls.avgRdBWSys                    782.30                       # Average system read bandwidth in MiByte/s
system.mem_ctrls.avgWrBWSys                      1.51                       # Average system write bandwidth in MiByte/s
system.mem_ctrls.peakBW                      12800.00                       # Theoretical peak bandwidth in MiByte/s
system.mem_ctrls.busUtil                         6.12                       # Data bus utilization in percentage
system.mem_ctrls.busUtilRead                     6.11                       # Data bus utilization in percentage for reads
system.mem_ctrls.busUtilWrite                    0.01                       # Data bus utilization in percentage for writes
system.mem_ctrls.avgRdQLen                       1.30                       # Average read queue length when enqueuing
system.mem_ctrls.avgWrQLen                      25.62                       # Average write queue length when enqueuing
system.mem_ctrls.readRowHits                    89136                       # Number of row buffer hits during reads
system.mem_ctrls.writeRowHits                     302                       # Number of row buffer hits during writes
system.mem_ctrls.readRowHitRate                 47.78                       # Row buffer hit rate for reads
system.mem_ctrls.writeRowHitRate                83.66                       # Row buffer hit rate for writes
system.mem_ctrls.avgGap                      81652.73                       # Average gap between requests
system.mem_ctrls.pageHitRate                    47.85                       # Row buffer hit rate, read and write combined
system.mem_ctrls_0.actEnergy                345526020                       # Energy for activate commands per rank (pJ)
system.mem_ctrls_0.preEnergy                183636255                       # Energy for precharge commands per rank (pJ)
system.mem_ctrls_0.readEnergy               659571780                       # Energy for read commands per rank (pJ)
system.mem_ctrls_0.writeEnergy                  93960                       # Energy for write commands per rank (pJ)
system.mem_ctrls_0.refreshEnergy         1205309040.000000                       # Energy for refresh commands per rank (pJ)
system.mem_ctrls_0.actBackEnergy           1583319210                       # Energy for active background per rank (pJ)
system.mem_ctrls_0.preBackEnergy             24779040                       # Energy for precharge background per rank (pJ)
system.mem_ctrls_0.actPowerDownEnergy      5215401960                       # Energy for active power-down per rank (pJ)
system.mem_ctrls_0.prePowerDownEnergy       112341120                       # Energy for precharge power-down per rank (pJ)
system.mem_ctrls_0.selfRefreshEnergy     740340.000000                       # Energy for self refresh per rank (pJ)
system.mem_ctrls_0.totalEnergy             9330718725                       # Total energy per rank (pJ)
system.mem_ctrls_0.averagePower            611.155329                       # Core power per rank (mW)
system.mem_ctrls_0.totalIdleTime          11731053375                       # Total Idle time Per DRAM Rank
system.mem_ctrls_0.memoryStateTime::IDLE     10158000                       # Time in different power states
system.mem_ctrls_0.memoryStateTime::REF     509866000                       # Time in different power states
system.mem_ctrls_0.memoryStateTime::SREF       784000                       # Time in different power states
system.mem_ctrls_0.memoryStateTime::PRE_PDN    292749750                       # Time in different power states
system.mem_ctrls_0.memoryStateTime::ACT    3016266750                       # Time in different power states
system.mem_ctrls_0.memoryStateTime::ACT_PDN  11437519625                       # Time in different power states
system.mem_ctrls_1.actEnergy                350495460                       # Energy for activate commands per rank (pJ)
system.mem_ctrls_1.preEnergy                186292755                       # Energy for precharge commands per rank (pJ)
system.mem_ctrls_1.readEnergy               672523740                       # Energy for read commands per rank (pJ)
system.mem_ctrls_1.writeEnergy                1743480                       # Energy for write commands per rank (pJ)
system.mem_ctrls_1.refreshEnergy         1205309040.000000                       # Energy for refresh commands per rank (pJ)
system.mem_ctrls_1.actBackEnergy           1606344930                       # Energy for active background per rank (pJ)
system.mem_ctrls_1.preBackEnergy             24218880                       # Energy for precharge background per rank (pJ)
system.mem_ctrls_1.actPowerDownEnergy      5191289250                       # Energy for active power-down per rank (pJ)
system.mem_ctrls_1.prePowerDownEnergy       114117600                       # Energy for precharge power-down per rank (pJ)
system.mem_ctrls_1.selfRefreshEnergy                0                       # Energy for self refresh per rank (pJ)
system.mem_ctrls_1.totalEnergy             9352335135                       # Total energy per rank (pJ)
system.mem_ctrls_1.averagePower            612.571188                       # Core power per rank (mW)
system.mem_ctrls_1.totalIdleTime          11680977625                       # Total Idle time Per DRAM Rank
system.mem_ctrls_1.memoryStateTime::IDLE      9756000                       # Time in different power states
system.mem_ctrls_1.memoryStateTime::REF     509860000                       # Time in different power states
system.mem_ctrls_1.memoryStateTime::SREF            0                       # Time in different power states
system.mem_ctrls_1.memoryStateTime::PRE_PDN    297514250                       # Time in different power states
system.mem_ctrls_1.memoryStateTime::ACT    3066685750                       # Time in different power states
system.mem_ctrls_1.memoryStateTime::ACT_PDN  11383528125                       # Time in different power states
system.pwrStateResidencyTicks::UNDEFINED  15267344125                       # Cumulative time (in ticks) in various power states
system.cpu0.branchPred.lookups                1628952                       # Number of BP lookups
system.cpu0.branchPred.condPredicted          1628952                       # Number of conditional branches predicted
system.cpu0.branchPred.condIncorrect            61665                       # Number of conditional branches incorrect
system.cpu0.branchPred.BTBLookups             1167749                       # Number of BTB lookups
system.cpu0.branchPred.BTBHits                      0                       # Number of BTB hits
system.cpu0.branchPred.BTBCorrect                   0                       # Number of correct BTB predictions (this stat may not work properly.
system.cpu0.branchPred.BTBHitPct             0.000000                       # BTB Hit Percentage
system.cpu0.branchPred.usedRAS                  39564                       # Number of times the RAS was used to get a target.
system.cpu0.branchPred.RASInCorrect              6017                       # Number of incorrect RAS predictions.
system.cpu0.branchPred.indirectLookups        1167749                       # Number of indirect predictor lookups.
system.cpu0.branchPred.indirectHits            713521                       # Number of indirect target hits.
system.cpu0.branchPred.indirectMisses          454228                       # Number of indirect misses.
system.cpu0.branchPredindirectMispredicted        17287                       # Number of mispredicted indirect branches.
system.cpu_voltage_domain.voltage                   1                       # Voltage in Volts
system.cpu_clk_domain.clock                       500                       # Clock period in ticks
system.cpu0.dtb.walker.pwrStateResidencyTicks::UNDEFINED  15267344125                       # Cumulative time (in ticks) in various power states
system.cpu0.dtb.rdAccesses                     780946                       # TLB accesses on read requests
system.cpu0.dtb.wrAccesses                      43754                       # TLB accesses on write requests
system.cpu0.dtb.rdMisses                       171956                       # TLB misses on read requests
system.cpu0.dtb.wrMisses                          721                       # TLB misses on write requests
system.cpu0.apic_clk_domain.clock                8000                       # Clock period in ticks
system.cpu0.interrupts.pwrStateResidencyTicks::UNDEFINED  15267344125                       # Cumulative time (in ticks) in various power states
system.cpu0.itb.walker.pwrStateResidencyTicks::UNDEFINED  15267344125                       # Cumulative time (in ticks) in various power states
system.cpu0.itb.rdAccesses                          0                       # TLB accesses on read requests
system.cpu0.itb.wrAccesses                    1401878                       # TLB accesses on write requests
system.cpu0.itb.rdMisses                            0                       # TLB misses on read requests
system.cpu0.itb.wrMisses                         3622                       # TLB misses on write requests
system.cpu0.workload.numSyscalls                    1                       # Number of system calls
system.cpu0.pwrStateResidencyTicks::ON    15267344125                       # Cumulative time (in ticks) in various power states
system.cpu0.numCycles                        30534689                       # number of cpu cycles simulated
system.cpu0.numWorkItemsStarted                     0                       # number of work items this cpu started
system.cpu0.numWorkItemsCompleted                   0                       # number of work items this cpu completed
system.cpu0.fetch.icacheStallCycles           1428694                       # Number of cycles fetch is stalled on an Icache miss
system.cpu0.fetch.Insts                       4653591                       # Number of instructions fetch has processed
system.cpu0.fetch.Branches                    1628952                       # Number of branches that fetch encountered
system.cpu0.fetch.predictedBranches            753085                       # Number of branches that fetch has predicted taken
system.cpu0.fetch.Cycles                     28990458                       # Number of cycles fetch has run and was not squashing or blocked
system.cpu0.fetch.SquashCycles                 125770                       # Number of cycles fetch has spent squashing
system.cpu0.fetch.TlbCycles                      1292                       # Number of cycles fetch has spent waiting for tlb
system.cpu0.fetch.MiscStallCycles                 895                       # Number of cycles fetch has spent waiting on interrupts, or bad addresses, or out of MSHRs
system.cpu0.fetch.PendingTrapStallCycles        28338                       # Number of stall cycles due to pending traps
system.cpu0.fetch.CacheLines                  1398256                       # Number of cache lines fetched
system.cpu0.fetch.IcacheSquashes                 6890                       # Number of outstanding Icache misses that were squashed
system.cpu0.fetch.ItlbSquashes                      5                       # Number of outstanding ITLB misses that were squashed
system.cpu0.fetch.rateDist::samples          30512562                       # Number of instructions fetched each cycle (Total)
system.cpu0.fetch.rateDist::mean             0.306271                       # Number of instructions fetched each cycle (Total)
system.cpu0.fetch.rateDist::stdev            1.388137                       # Number of instructions fetched each cycle (Total)
system.cpu0.fetch.rateDist::underflows              0      0.00%      0.00% # Number of instructions fetched each cycle (Total)
system.cpu0.fetch.rateDist::0                28672525     93.97%     93.97% # Number of instructions fetched each cycle (Total)
system.cpu0.fetch.rateDist::1                   16594      0.05%     94.02% # Number of instructions fetched each cycle (Total)
system.cpu0.fetch.rateDist::2                  710484      2.33%     96.35% # Number of instructions fetched each cycle (Total)
system.cpu0.fetch.rateDist::3                   22162      0.07%     96.43% # Number of instructions fetched each cycle (Total)
system.cpu0.fetch.rateDist::4                  128798      0.42%     96.85% # Number of instructions fetched each cycle (Total)
system.cpu0.fetch.rateDist::5                   57317      0.19%     97.04% # Number of instructions fetched each cycle (Total)
system.cpu0.fetch.rateDist::6                   89314      0.29%     97.33% # Number of instructions fetched each cycle (Total)
system.cpu0.fetch.rateDist::7                   19531      0.06%     97.39% # Number of instructions fetched each cycle (Total)
system.cpu0.fetch.rateDist::8                  795837      2.61%    100.00% # Number of instructions fetched each cycle (Total)
system.cpu0.fetch.rateDist::overflows               0      0.00%    100.00% # Number of instructions fetched each cycle (Total)
system.cpu0.fetch.rateDist::min_value               0                       # Number of instructions fetched each cycle (Total)
system.cpu0.fetch.rateDist::max_value               8                       # Number of instructions fetched each cycle (Total)
system.cpu0.fetch.rateDist::total            30512562                       # Number of instructions fetched each cycle (Total)
system.cpu0.fetch.branchRate                 0.053348                       # Number of branch fetches per cycle
system.cpu0.fetch.rate                       0.152403                       # Number of inst fetches per cycle
system.cpu0.decode.IdleCycles                  678360                       # Number of cycles decode is idle
system.cpu0.decode.BlockedCycles             28581923                       # Number of cycles decode is blocked
system.cpu0.decode.RunCycles                   854214                       # Number of cycles decode is running
system.cpu0.decode.UnblockCycles               335180                       # Number of cycles decode is unblocking
system.cpu0.decode.SquashCycles                 62885                       # Number of cycles decode is squashing
system.cpu0.decode.DecodedInsts               7721893                       # Number of instructions handled by decode
system.cpu0.rename.SquashCycles                 62885                       # Number of cycles rename is squashing
system.cpu0.rename.IdleCycles                  776695                       # Number of cycles rename is idle
system.cpu0.rename.BlockCycles               27236860                       # Number of cycles rename is blocking
system.cpu0.rename.serializeStallCycles          9576                       # count of cycles rename stalled for serializing inst
system.cpu0.rename.RunCycles                  1009165                       # Number of cycles rename is running
system.cpu0.rename.UnblockCycles              1417381                       # Number of cycles rename is unblocking
system.cpu0.rename.RenamedInsts               7429878                       # Number of instructions processed by rename
system.cpu0.rename.ROBFullEvents                67058                       # Number of times rename has blocked due to ROB full
system.cpu0.rename.IQFullEvents               1139762                       # Number of times rename has blocked due to IQ full
system.cpu0.rename.LQFullEvents                229977                       # Number of times rename has blocked due to LQ full
system.cpu0.rename.SQFullEvents                   637                       # Number of times rename has blocked due to SQ full
system.cpu0.rename.RenamedOperands            8876705                       # Number of destination operands rename has renamed
system.cpu0.rename.RenameLookups             20831469                       # Number of register rename lookups that rename has made
system.cpu0.rename.int_rename_lookups         9663880                       # Number of integer rename lookups
system.cpu0.rename.fp_rename_lookups            33963                       # Number of floating rename lookups
system.cpu0.rename.CommittedMaps              3366935                       # Number of HB maps that are committed
system.cpu0.rename.UndoneMaps                 5509644                       # Number of HB maps that are undone due to squashing
system.cpu0.rename.serializingInsts               215                       # count of serializing insts renamed
system.cpu0.rename.tempSerializingInsts           256                       # count of temporary serializing insts renamed
system.cpu0.rename.skidInsts                  2151008                       # count of insts added to the skid buffer
system.cpu0.memDep0.insertedLoads             1370863                       # Number of loads inserted to the mem dependence unit.
system.cpu0.memDep0.insertedStores              61645                       # Number of stores inserted to the mem dependence unit.
system.cpu0.memDep0.conflictingLoads             2961                       # Number of conflicting loads.
system.cpu0.memDep0.conflictingStores            3279                       # Number of conflicting stores.
system.cpu0.iq.iqInstsAdded                   7094446                       # Number of instructions added to the IQ (excludes non-spec)
system.cpu0.iq.iqNonSpecInstsAdded               3368                       # Number of non-speculative instructions added to the IQ
system.cpu0.iq.iqInstsIssued                  5093772                       # Number of instructions issued
system.cpu0.iq.iqSquashedInstsIssued             5181                       # Number of squashed instructions issued
system.cpu0.iq.iqSquashedInstsExamined        4290266                       # Number of squashed instructions iterated over during squash; mainly for profiling
system.cpu0.iq.iqSquashedOperandsExamined      9222553                       # Number of squashed operands that are examined and possibly removed from graph
system.cpu0.iq.iqSquashedNonSpecRemoved          3367                       # Number of squashed non-spec instructions that were removed
system.cpu0.iq.issued_per_cycle::samples     30512562                       # Number of insts issued each cycle
system.cpu0.iq.issued_per_cycle::mean        0.166940                       # Number of insts issued each cycle
system.cpu0.iq.issued_per_cycle::stdev       0.735057                       # Number of insts issued each cycle
system.cpu0.iq.issued_per_cycle::underflows            0      0.00%      0.00% # Number of insts issued each cycle
system.cpu0.iq.issued_per_cycle::0           28371085     92.98%     92.98% # Number of insts issued each cycle
system.cpu0.iq.issued_per_cycle::1             869047      2.85%     95.83% # Number of insts issued each cycle
system.cpu0.iq.issued_per_cycle::2             460732      1.51%     97.34% # Number of insts issued each cycle
system.cpu0.iq.issued_per_cycle::3             311693      1.02%     98.36% # Number of insts issued each cycle
system.cpu0.iq.issued_per_cycle::4             305149      1.00%     99.36% # Number of insts issued each cycle
system.cpu0.iq.issued_per_cycle::5              82515      0.27%     99.63% # Number of insts issued each cycle
system.cpu0.iq.issued_per_cycle::6              69999      0.23%     99.86% # Number of insts issued each cycle
system.cpu0.iq.issued_per_cycle::7              23719      0.08%     99.94% # Number of insts issued each cycle
system.cpu0.iq.issued_per_cycle::8              18623      0.06%    100.00% # Number of insts issued each cycle
system.cpu0.iq.issued_per_cycle::overflows            0      0.00%    100.00% # Number of insts issued each cycle
system.cpu0.iq.issued_per_cycle::min_value            0                       # Number of insts issued each cycle
system.cpu0.iq.issued_per_cycle::max_value            8                       # Number of insts issued each cycle
system.cpu0.iq.issued_per_cycle::total       30512562                       # Number of insts issued each cycle
system.cpu0.iq.fu_full::No_OpClass                  0      0.00%      0.00% # attempts to use FU when none available
system.cpu0.iq.fu_full::IntAlu                   9515     68.27%     68.27% # attempts to use FU when none available
system.cpu0.iq.fu_full::IntMult                     0      0.00%     68.27% # attempts to use FU when none available
system.cpu0.iq.fu_full::IntDiv                      0      0.00%     68.27% # attempts to use FU when none available
system.cpu0.iq.fu_full::FloatAdd                 1013      7.27%     75.54% # attempts to use FU when none available
system.cpu0.iq.fu_full::FloatCmp                    0      0.00%     75.54% # attempts to use FU when none available
system.cpu0.iq.fu_full::FloatCvt                    0      0.00%     75.54% # attempts to use FU when none available
system.cpu0.iq.fu_full::FloatMult                   0      0.00%     75.54% # attempts to use FU when none available
system.cpu0.iq.fu_full::FloatMultAcc                0      0.00%     75.54% # attempts to use FU when none available
system.cpu0.iq.fu_full::FloatDiv                    0      0.00%     75.54% # attempts to use FU when none available
system.cpu0.iq.fu_full::FloatMisc                   0      0.00%     75.54% # attempts to use FU when none available
system.cpu0.iq.fu_full::FloatSqrt                   0      0.00%     75.54% # attempts to use FU when none available
system.cpu0.iq.fu_full::SimdAdd                     0      0.00%     75.54% # attempts to use FU when none available
system.cpu0.iq.fu_full::SimdAddAcc                  0      0.00%     75.54% # attempts to use FU when none available
system.cpu0.iq.fu_full::SimdAlu                     0      0.00%     75.54% # attempts to use FU when none available
system.cpu0.iq.fu_full::SimdCmp                     0      0.00%     75.54% # attempts to use FU when none available
system.cpu0.iq.fu_full::SimdCvt                     0      0.00%     75.54% # attempts to use FU when none available
system.cpu0.iq.fu_full::SimdMisc                    0      0.00%     75.54% # attempts to use FU when none available
system.cpu0.iq.fu_full::SimdMult                    0      0.00%     75.54% # attempts to use FU when none available
system.cpu0.iq.fu_full::SimdMultAcc                 0      0.00%     75.54% # attempts to use FU when none available
system.cpu0.iq.fu_full::SimdShift                   0      0.00%     75.54% # attempts to use FU when none available
system.cpu0.iq.fu_full::SimdShiftAcc                0      0.00%     75.54% # attempts to use FU when none available
system.cpu0.iq.fu_full::SimdSqrt                    0      0.00%     75.54% # attempts to use FU when none available
system.cpu0.iq.fu_full::SimdFloatAdd                0      0.00%     75.54% # attempts to use FU when none available
system.cpu0.iq.fu_full::SimdFloatAlu                0      0.00%     75.54% # attempts to use FU when none available
system.cpu0.iq.fu_full::SimdFloatCmp                0      0.00%     75.54% # attempts to use FU when none available
system.cpu0.iq.fu_full::SimdFloatCvt                0      0.00%     75.54% # attempts to use FU when none available
system.cpu0.iq.fu_full::SimdFloatDiv                0      0.00%     75.54% # attempts to use FU when none available
system.cpu0.iq.fu_full::SimdFloatMisc               0      0.00%     75.54% # attempts to use FU when none available
system.cpu0.iq.fu_full::SimdFloatMult               0      0.00%     75.54% # attempts to use FU when none available
system.cpu0.iq.fu_full::SimdFloatMultAcc            0      0.00%     75.54% # attempts to use FU when none available
system.cpu0.iq.fu_full::SimdFloatSqrt               0      0.00%     75.54% # attempts to use FU when none available
system.cpu0.iq.fu_full::MemRead                  3073     22.05%     97.59% # attempts to use FU when none available
system.cpu0.iq.fu_full::MemWrite                  210      1.51%     99.10% # attempts to use FU when none available
system.cpu0.iq.fu_full::FloatMemRead              119      0.85%     99.95% # attempts to use FU when none available
system.cpu0.iq.fu_full::FloatMemWrite               7      0.05%    100.00% # attempts to use FU when none available
system.cpu0.iq.fu_full::IprAccess                   0      0.00%    100.00% # attempts to use FU when none available
system.cpu0.iq.fu_full::InstPrefetch                0      0.00%    100.00% # attempts to use FU when none available
system.cpu0.iq.FU_type_0::No_OpClass            14306      0.28%      0.28% # Type of FU issued
system.cpu0.iq.FU_type_0::IntAlu              4198798     82.43%     82.71% # Type of FU issued
system.cpu0.iq.FU_type_0::IntMult                 498      0.01%     82.72% # Type of FU issued
system.cpu0.iq.FU_type_0::IntDiv                 8898      0.17%     82.90% # Type of FU issued
system.cpu0.iq.FU_type_0::FloatAdd              12604      0.25%     83.14% # Type of FU issued
system.cpu0.iq.FU_type_0::FloatCmp                  0      0.00%     83.14% # Type of FU issued
system.cpu0.iq.FU_type_0::FloatCvt                  0      0.00%     83.14% # Type of FU issued
system.cpu0.iq.FU_type_0::FloatMult                 0      0.00%     83.14% # Type of FU issued
system.cpu0.iq.FU_type_0::FloatMultAcc              0      0.00%     83.14% # Type of FU issued
system.cpu0.iq.FU_type_0::FloatDiv                  0      0.00%     83.14% # Type of FU issued
system.cpu0.iq.FU_type_0::FloatMisc                 0      0.00%     83.14% # Type of FU issued
system.cpu0.iq.FU_type_0::FloatSqrt                 0      0.00%     83.14% # Type of FU issued
system.cpu0.iq.FU_type_0::SimdAdd                   0      0.00%     83.14% # Type of FU issued
system.cpu0.iq.FU_type_0::SimdAddAcc                0      0.00%     83.14% # Type of FU issued
system.cpu0.iq.FU_type_0::SimdAlu                   0      0.00%     83.14% # Type of FU issued
system.cpu0.iq.FU_type_0::SimdCmp                   0      0.00%     83.14% # Type of FU issued
system.cpu0.iq.FU_type_0::SimdCvt                   0      0.00%     83.14% # Type of FU issued
system.cpu0.iq.FU_type_0::SimdMisc                  0      0.00%     83.14% # Type of FU issued
system.cpu0.iq.FU_type_0::SimdMult                  0      0.00%     83.14% # Type of FU issued
system.cpu0.iq.FU_type_0::SimdMultAcc               0      0.00%     83.14% # Type of FU issued
system.cpu0.iq.FU_type_0::SimdShift                 0      0.00%     83.14% # Type of FU issued
system.cpu0.iq.FU_type_0::SimdShiftAcc              0      0.00%     83.14% # Type of FU issued
system.cpu0.iq.FU_type_0::SimdSqrt                  0      0.00%     83.14% # Type of FU issued
system.cpu0.iq.FU_type_0::SimdFloatAdd              0      0.00%     83.14% # Type of FU issued
system.cpu0.iq.FU_type_0::SimdFloatAlu              0      0.00%     83.14% # Type of FU issued
system.cpu0.iq.FU_type_0::SimdFloatCmp              0      0.00%     83.14% # Type of FU issued
system.cpu0.iq.FU_type_0::SimdFloatCvt              0      0.00%     83.14% # Type of FU issued
system.cpu0.iq.FU_type_0::SimdFloatDiv              0      0.00%     83.14% # Type of FU issued
system.cpu0.iq.FU_type_0::SimdFloatMisc             0      0.00%     83.14% # Type of FU issued
system.cpu0.iq.FU_type_0::SimdFloatMult             0      0.00%     83.14% # Type of FU issued
system.cpu0.iq.FU_type_0::SimdFloatMultAcc            0      0.00%     83.14% # Type of FU issued
system.cpu0.iq.FU_type_0::SimdFloatSqrt             0      0.00%     83.14% # Type of FU issued
system.cpu0.iq.FU_type_0::MemRead              809468     15.89%     99.03% # Type of FU issued
system.cpu0.iq.FU_type_0::MemWrite              46716      0.92%     99.95% # Type of FU issued
system.cpu0.iq.FU_type_0::FloatMemRead           2459      0.05%    100.00% # Type of FU issued
system.cpu0.iq.FU_type_0::FloatMemWrite            25      0.00%    100.00% # Type of FU issued
system.cpu0.iq.FU_type_0::IprAccess                 0      0.00%    100.00% # Type of FU issued
system.cpu0.iq.FU_type_0::InstPrefetch              0      0.00%    100.00% # Type of FU issued
system.cpu0.iq.FU_type_0::total               5093772                       # Type of FU issued
system.cpu0.iq.rate                          0.166819                       # Inst issue rate
system.cpu0.iq.fu_busy_cnt                      13937                       # FU busy when requested
system.cpu0.iq.fu_busy_rate                  0.002736                       # FU busy rate (busy events/executed inst)
system.cpu0.iq.int_inst_queue_reads          40687702                       # Number of integer instruction queue reads
system.cpu0.iq.int_inst_queue_writes         11358887                       # Number of integer instruction queue writes
system.cpu0.iq.int_inst_queue_wakeup_accesses      4907035                       # Number of integer instruction queue wakeup accesses
system.cpu0.iq.fp_inst_queue_reads              31522                       # Number of floating instruction queue reads
system.cpu0.iq.fp_inst_queue_writes             29200                       # Number of floating instruction queue writes
system.cpu0.iq.fp_inst_queue_wakeup_accesses        13684                       # Number of floating instruction queue wakeup accesses
system.cpu0.iq.vec_inst_queue_reads                 0                       # Number of vector instruction queue reads
system.cpu0.iq.vec_inst_queue_writes                0                       # Number of vector instruction queue writes
system.cpu0.iq.vec_inst_queue_wakeup_accesses            0                       # Number of vector instruction queue wakeup accesses
system.cpu0.iq.int_alu_accesses               5077175                       # Number of integer alu accesses
system.cpu0.iq.fp_alu_accesses                  16228                       # Number of floating point alu accesses
system.cpu0.iq.vec_alu_accesses                     0                       # Number of vector alu accesses
system.cpu0.iew.lsq.thread0.forwLoads            4616                       # Number of loads that had data forwarded from stores
system.cpu0.iew.lsq.thread0.invAddrLoads            0                       # Number of loads ignored due to an invalid address
system.cpu0.iew.lsq.thread0.squashedLoads       834305                       # Number of loads squashed
system.cpu0.iew.lsq.thread0.ignoredResponses          140                       # Number of memory responses ignored because the instruction is squashed
system.cpu0.iew.lsq.thread0.memOrderViolation            7                       # Number of memory ordering violations
system.cpu0.iew.lsq.thread0.squashedStores        36539                       # Number of stores squashed
system.cpu0.iew.lsq.thread0.invAddrSwpfs            0                       # Number of software prefetches ignored due to an invalid address
system.cpu0.iew.lsq.thread0.blockedLoads            0                       # Number of blocked loads due to partial load-store forwarding
system.cpu0.iew.lsq.thread0.rescheduledLoads           30                       # Number of loads that were rescheduled
system.cpu0.iew.lsq.thread0.cacheBlocked         1937                       # Number of times an access to memory failed due to the cache being blocked
system.cpu0.iew.iewIdleCycles                       0                       # Number of cycles IEW is idle
system.cpu0.iew.iewSquashCycles                 62885                       # Number of cycles IEW is squashing
system.cpu0.iew.iewBlockCycles               25423521                       # Number of cycles IEW is blocking
system.cpu0.iew.iewUnblockCycles               285386                       # Number of cycles IEW is unblocking
system.cpu0.iew.iewDispatchedInsts            7097814                       # Number of instructions dispatched to IQ
system.cpu0.iew.iewDispSquashedInsts             3557                       # Number of squashed instructions skipped by dispatch
system.cpu0.iew.iewDispLoadInsts              1370863                       # Number of dispatched load instructions
system.cpu0.iew.iewDispStoreInsts               61645                       # Number of dispatched store instructions
system.cpu0.iew.iewDispNonSpecInsts              1262                       # Number of dispatched non-speculative instructions
system.cpu0.iew.iewIQFullEvents                 16368                       # Number of times the IQ has become full, causing a stall
system.cpu0.iew.iewLSQFullEvents                60428                       # Number of times the LSQ has become full, causing a stall
system.cpu0.iew.memOrderViolationEvents             7                       # Number of memory order violations
system.cpu0.iew.predictedTakenIncorrect         36054                       # Number of branches that were predicted taken incorrectly
system.cpu0.iew.predictedNotTakenIncorrect        32459                       # Number of branches that were predicted not taken incorrectly
system.cpu0.iew.branchMispredicts               68513                       # Number of branch mispredicts detected at execute
system.cpu0.iew.iewExecutedInsts              5017194                       # Number of executed instructions
system.cpu0.iew.iewExecLoadInsts               780747                       # Number of load instructions executed
system.cpu0.iew.iewExecSquashedInsts            76578                       # Number of squashed instructions skipped in execute
system.cpu0.iew.exec_swp                            0                       # number of swp insts executed
system.cpu0.iew.exec_nop                            0                       # number of nop insts executed
system.cpu0.iew.exec_refs                      824487                       # number of memory reference insts executed
system.cpu0.iew.exec_branches                  618621                       # Number of branches executed
system.cpu0.iew.exec_stores                     43740                       # Number of stores executed
system.cpu0.iew.exec_rate                    0.164311                       # Inst execution rate
system.cpu0.iew.wb_sent                       4934421                       # cumulative count of insts sent to commit
system.cpu0.iew.wb_count                      4920719                       # cumulative count of insts written-back
system.cpu0.iew.wb_producers                  3607014                       # num instructions producing a value
system.cpu0.iew.wb_consumers                  5743973                       # num instructions consuming a value
system.cpu0.iew.wb_rate                      0.161152                       # insts written-back per cycle
system.cpu0.iew.wb_fanout                    0.627965                       # average fanout of values written-back
system.cpu0.commit.commitSquashedInsts        4291089                       # The number of squashed insts skipped by commit
system.cpu0.commit.commitNonSpecStalls              1                       # The number of times commit has been forced to stall to communicate backwards
system.cpu0.commit.branchMispredicts            62881                       # The number of times a branch was mispredicted
system.cpu0.commit.committed_per_cycle::samples     29912685                       # Number of insts commited each cycle
system.cpu0.commit.committed_per_cycle::mean     0.093855                       # Number of insts commited each cycle
system.cpu0.commit.committed_per_cycle::stdev     0.562281                       # Number of insts commited each cycle
system.cpu0.commit.committed_per_cycle::underflows            0      0.00%      0.00% # Number of insts commited each cycle
system.cpu0.commit.committed_per_cycle::0     28686850     95.90%     95.90% # Number of insts commited each cycle
system.cpu0.commit.committed_per_cycle::1       567588      1.90%     97.80% # Number of insts commited each cycle
system.cpu0.commit.committed_per_cycle::2       135446      0.45%     98.25% # Number of insts commited each cycle
system.cpu0.commit.committed_per_cycle::3       369967      1.24%     99.49% # Number of insts commited each cycle
system.cpu0.commit.committed_per_cycle::4        61096      0.20%     99.69% # Number of insts commited each cycle
system.cpu0.commit.committed_per_cycle::5        35279      0.12%     99.81% # Number of insts commited each cycle
system.cpu0.commit.committed_per_cycle::6         4748      0.02%     99.83% # Number of insts commited each cycle
system.cpu0.commit.committed_per_cycle::7         3890      0.01%     99.84% # Number of insts commited each cycle
system.cpu0.commit.committed_per_cycle::8        47821      0.16%    100.00% # Number of insts commited each cycle
system.cpu0.commit.committed_per_cycle::overflows            0      0.00%    100.00% # Number of insts commited each cycle
system.cpu0.commit.committed_per_cycle::min_value            0                       # Number of insts commited each cycle
system.cpu0.commit.committed_per_cycle::max_value            8                       # Number of insts commited each cycle
system.cpu0.commit.committed_per_cycle::total     29912685                       # Number of insts commited each cycle
system.cpu0.commit.committedInsts             1405318                       # Number of instructions committed
system.cpu0.commit.committedOps               2807446                       # Number of ops (including micro ops) committed
system.cpu0.commit.swp_count                        0                       # Number of s/w prefetches committed
system.cpu0.commit.refs                        561642                       # Number of memory references committed
system.cpu0.commit.loads                       536536                       # Number of loads committed
system.cpu0.commit.membars                          0                       # Number of memory barriers committed
system.cpu0.commit.branches                    511219                       # Number of branches committed
system.cpu0.commit.vec_insts                        0                       # Number of committed Vector instructions.
system.cpu0.commit.fp_insts                     10038                       # Number of committed floating point instructions.
system.cpu0.commit.int_insts                  2797261                       # Number of committed integer instructions.
system.cpu0.commit.function_calls                4429                       # Number of function calls committed.
system.cpu0.commit.op_class_0::No_OpClass         3062      0.11%      0.11% # Class of committed instruction
system.cpu0.commit.op_class_0::IntAlu         2226516     79.31%     79.42% # Class of committed instruction
system.cpu0.commit.op_class_0::IntMult            177      0.01%     79.42% # Class of committed instruction
system.cpu0.commit.op_class_0::IntDiv            7469      0.27%     79.69% # Class of committed instruction
system.cpu0.commit.op_class_0::FloatAdd          8580      0.31%     79.99% # Class of committed instruction
system.cpu0.commit.op_class_0::FloatCmp             0      0.00%     79.99% # Class of committed instruction
system.cpu0.commit.op_class_0::FloatCvt             0      0.00%     79.99% # Class of committed instruction
system.cpu0.commit.op_class_0::FloatMult            0      0.00%     79.99% # Class of committed instruction
system.cpu0.commit.op_class_0::FloatMultAcc            0      0.00%     79.99% # Class of committed instruction
system.cpu0.commit.op_class_0::FloatDiv             0      0.00%     79.99% # Class of committed instruction
system.cpu0.commit.op_class_0::FloatMisc            0      0.00%     79.99% # Class of committed instruction
system.cpu0.commit.op_class_0::FloatSqrt            0      0.00%     79.99% # Class of committed instruction
system.cpu0.commit.op_class_0::SimdAdd              0      0.00%     79.99% # Class of committed instruction
system.cpu0.commit.op_class_0::SimdAddAcc            0      0.00%     79.99% # Class of committed instruction
system.cpu0.commit.op_class_0::SimdAlu              0      0.00%     79.99% # Class of committed instruction
system.cpu0.commit.op_class_0::SimdCmp              0      0.00%     79.99% # Class of committed instruction
system.cpu0.commit.op_class_0::SimdCvt              0      0.00%     79.99% # Class of committed instruction
system.cpu0.commit.op_class_0::SimdMisc             0      0.00%     79.99% # Class of committed instruction
system.cpu0.commit.op_class_0::SimdMult             0      0.00%     79.99% # Class of committed instruction
system.cpu0.commit.op_class_0::SimdMultAcc            0      0.00%     79.99% # Class of committed instruction
system.cpu0.commit.op_class_0::SimdShift            0      0.00%     79.99% # Class of committed instruction
system.cpu0.commit.op_class_0::SimdShiftAcc            0      0.00%     79.99% # Class of committed instruction
system.cpu0.commit.op_class_0::SimdSqrt             0      0.00%     79.99% # Class of committed instruction
system.cpu0.commit.op_class_0::SimdFloatAdd            0      0.00%     79.99% # Class of committed instruction
system.cpu0.commit.op_class_0::SimdFloatAlu            0      0.00%     79.99% # Class of committed instruction
system.cpu0.commit.op_class_0::SimdFloatCmp            0      0.00%     79.99% # Class of committed instruction
system.cpu0.commit.op_class_0::SimdFloatCvt            0      0.00%     79.99% # Class of committed instruction
system.cpu0.commit.op_class_0::SimdFloatDiv            0      0.00%     79.99% # Class of committed instruction
system.cpu0.commit.op_class_0::SimdFloatMisc            0      0.00%     79.99% # Class of committed instruction
system.cpu0.commit.op_class_0::SimdFloatMult            0      0.00%     79.99% # Class of committed instruction
system.cpu0.commit.op_class_0::SimdFloatMultAcc            0      0.00%     79.99% # Class of committed instruction
system.cpu0.commit.op_class_0::SimdFloatSqrt            0      0.00%     79.99% # Class of committed instruction
system.cpu0.commit.op_class_0::MemRead         535078     19.06%     99.05% # Class of committed instruction
system.cpu0.commit.op_class_0::MemWrite         25106      0.89%     99.95% # Class of committed instruction
system.cpu0.commit.op_class_0::FloatMemRead         1458      0.05%    100.00% # Class of committed instruction
system.cpu0.commit.op_class_0::FloatMemWrite            0      0.00%    100.00% # Class of committed instruction
system.cpu0.commit.op_class_0::IprAccess            0      0.00%    100.00% # Class of committed instruction
system.cpu0.commit.op_class_0::InstPrefetch            0      0.00%    100.00% # Class of committed instruction
system.cpu0.commit.op_class_0::total          2807446                       # Class of committed instruction
system.cpu0.commit.bw_lim_events                47821                       # number cycles where commit BW limit reached
system.cpu0.rob.rob_reads                    36963399                       # The number of ROB reads
system.cpu0.rob.rob_writes                   14798240                       # The number of ROB writes
system.cpu0.timesIdled                            185                       # Number of times that the entire CPU went into an idle state and unscheduled itself
system.cpu0.idleCycles                          22127                       # Total number of cycles that the CPU has spent unscheduled due to idling
system.cpu0.committedInsts                    1405318                       # Number of Instructions Simulated
system.cpu0.committedOps                      2807446                       # Number of Ops (including micro ops) Simulated
system.cpu0.cpi                             21.727957                       # CPI: Cycles Per Instruction
system.cpu0.cpi_total                       21.727957                       # CPI: Total CPI of All Threads
system.cpu0.ipc                              0.046024                       # IPC: Instructions Per Cycle
system.cpu0.ipc_total                        0.046024                       # IPC: Total IPC of All Threads
system.cpu0.int_regfile_reads                 4983178                       # number of integer regfile reads
system.cpu0.int_regfile_writes                4264187                       # number of integer regfile writes
system.cpu0.fp_regfile_reads                    24277                       # number of floating regfile reads
system.cpu0.fp_regfile_writes                   12068                       # number of floating regfile writes
system.cpu0.cc_regfile_reads                  3297170                       # number of cc regfile reads
system.cpu0.cc_regfile_writes                 1373084                       # number of cc regfile writes
system.cpu0.misc_regfile_reads                2682622                       # number of misc regfile reads
system.cpu0.dcache.tags.pwrStateResidencyTicks::UNDEFINED  15267344125                       # Cumulative time (in ticks) in various power states
system.cpu0.dcache.tags.replacements           284531                       # number of replacements
system.cpu0.dcache.tags.tagsinuse                1024                       # Cycle average of tags in use
system.cpu0.dcache.tags.total_refs             300798                       # Total number of references to valid blocks.
system.cpu0.dcache.tags.sampled_refs           284531                       # Sample count of references to valid blocks.
system.cpu0.dcache.tags.avg_refs             1.057171                       # Average number of references to valid blocks.
system.cpu0.dcache.tags.warmup_cycle                0                       # Cycle when the warmup percentage was hit.
system.cpu0.dcache.tags.occ_blocks::cpu0.data         1024                       # Average occupied blocks per requestor
system.cpu0.dcache.tags.occ_percent::cpu0.data            1                       # Average percentage of cache occupancy
system.cpu0.dcache.tags.occ_percent::total            1                       # Average percentage of cache occupancy
system.cpu0.dcache.tags.occ_task_id_blocks::1024         1024                       # Occupied blocks per task id
system.cpu0.dcache.tags.age_task_id_blocks_1024::0          134                       # Occupied blocks per task id
system.cpu0.dcache.tags.age_task_id_blocks_1024::1          790                       # Occupied blocks per task id
system.cpu0.dcache.tags.age_task_id_blocks_1024::2          100                       # Occupied blocks per task id
system.cpu0.dcache.tags.occ_task_id_percent::1024            1                       # Percentage of cache occupancy per task id
system.cpu0.dcache.tags.tag_accesses          3472847                       # Number of tag accesses
system.cpu0.dcache.tags.data_accesses         3472847                       # Number of data accesses
system.cpu0.dcache.pwrStateResidencyTicks::UNDEFINED  15267344125                       # Cumulative time (in ticks) in various power states
system.cpu0.dcache.ReadReq_hits::cpu0.data       278253                       # number of ReadReq hits
system.cpu0.dcache.ReadReq_hits::total         278253                       # number of ReadReq hits
system.cpu0.dcache.WriteReq_hits::cpu0.data        24094                       # number of WriteReq hits
system.cpu0.dcache.WriteReq_hits::total         24094                       # number of WriteReq hits
system.cpu0.dcache.demand_hits::cpu0.data       302347                       # number of demand (read+write) hits
system.cpu0.dcache.demand_hits::total          302347                       # number of demand (read+write) hits
system.cpu0.dcache.overall_hits::cpu0.data       302347                       # number of overall hits
system.cpu0.dcache.overall_hits::total         302347                       # number of overall hits
system.cpu0.dcache.ReadReq_misses::cpu0.data       493720                       # number of ReadReq misses
system.cpu0.dcache.ReadReq_misses::total       493720                       # number of ReadReq misses
system.cpu0.dcache.WriteReq_misses::cpu0.data         1012                       # number of WriteReq misses
system.cpu0.dcache.WriteReq_misses::total         1012                       # number of WriteReq misses
system.cpu0.dcache.demand_misses::cpu0.data       494732                       # number of demand (read+write) misses
system.cpu0.dcache.demand_misses::total        494732                       # number of demand (read+write) misses
system.cpu0.dcache.overall_misses::cpu0.data       494732                       # number of overall misses
system.cpu0.dcache.overall_misses::total       494732                       # number of overall misses
system.cpu0.dcache.ReadReq_miss_latency::cpu0.data  34219528500                       # number of ReadReq miss cycles
system.cpu0.dcache.ReadReq_miss_latency::total  34219528500                       # number of ReadReq miss cycles
system.cpu0.dcache.WriteReq_miss_latency::cpu0.data     36059497                       # number of WriteReq miss cycles
system.cpu0.dcache.WriteReq_miss_latency::total     36059497                       # number of WriteReq miss cycles
system.cpu0.dcache.demand_miss_latency::cpu0.data  34255587997                       # number of demand (read+write) miss cycles
system.cpu0.dcache.demand_miss_latency::total  34255587997                       # number of demand (read+write) miss cycles
system.cpu0.dcache.overall_miss_latency::cpu0.data  34255587997                       # number of overall miss cycles
system.cpu0.dcache.overall_miss_latency::total  34255587997                       # number of overall miss cycles
system.cpu0.dcache.ReadReq_accesses::cpu0.data       771973                       # number of ReadReq accesses(hits+misses)
system.cpu0.dcache.ReadReq_accesses::total       771973                       # number of ReadReq accesses(hits+misses)
system.cpu0.dcache.WriteReq_accesses::cpu0.data        25106                       # number of WriteReq accesses(hits+misses)
system.cpu0.dcache.WriteReq_accesses::total        25106                       # number of WriteReq accesses(hits+misses)
system.cpu0.dcache.demand_accesses::cpu0.data       797079                       # number of demand (read+write) accesses
system.cpu0.dcache.demand_accesses::total       797079                       # number of demand (read+write) accesses
system.cpu0.dcache.overall_accesses::cpu0.data       797079                       # number of overall (read+write) accesses
system.cpu0.dcache.overall_accesses::total       797079                       # number of overall (read+write) accesses
system.cpu0.dcache.ReadReq_miss_rate::cpu0.data     0.639556                       # miss rate for ReadReq accesses
system.cpu0.dcache.ReadReq_miss_rate::total     0.639556                       # miss rate for ReadReq accesses
system.cpu0.dcache.WriteReq_miss_rate::cpu0.data     0.040309                       # miss rate for WriteReq accesses
system.cpu0.dcache.WriteReq_miss_rate::total     0.040309                       # miss rate for WriteReq accesses
system.cpu0.dcache.demand_miss_rate::cpu0.data     0.620681                       # miss rate for demand accesses
system.cpu0.dcache.demand_miss_rate::total     0.620681                       # miss rate for demand accesses
system.cpu0.dcache.overall_miss_rate::cpu0.data     0.620681                       # miss rate for overall accesses
system.cpu0.dcache.overall_miss_rate::total     0.620681                       # miss rate for overall accesses
[...]
system.l2.ReadExReq_miss_rate::cpu0.data     0.244533                       # miss rate for ReadExReq accesses
system.l2.ReadExReq_miss_rate::total         0.244533                       # miss rate for ReadExReq accesses
system.l2.ReadCleanReq_miss_rate::cpu0.inst            1                       # miss rate for ReadCleanReq accesses
system.l2.ReadCleanReq_miss_rate::total             1                       # miss rate for ReadCleanReq accesses
system.l2.ReadSharedReq_miss_rate::cpu0.data     0.657335                       # miss rate for ReadSharedReq accesses
system.l2.ReadSharedReq_miss_rate::total     0.657335                       # miss rate for ReadSharedReq accesses
system.l2.demand_miss_rate::cpu0.inst               1                       # miss rate for demand accesses
system.l2.demand_miss_rate::cpu0.data        0.655876                       # miss rate for demand accesses
system.l2.demand_miss_rate::total            0.655878                       # miss rate for demand accesses
system.l2.overall_miss_rate::cpu0.inst              1                       # miss rate for overall accesses
system.l2.overall_miss_rate::cpu0.data       0.655876                       # miss rate for overall accesses
system.l2.overall_miss_rate::total           0.655878                       # miss rate for overall accesses
system.l2.ReadExReq_avg_miss_latency::cpu0.data 101729.674797                       # average ReadExReq miss latency
system.l2.ReadExReq_avg_miss_latency::total 101729.674797                       # average ReadExReq miss latency
system.l2.ReadCleanReq_avg_miss_latency::cpu0.inst       100750                       # average ReadCleanReq miss latency
system.l2.ReadCleanReq_avg_miss_latency::total       100750                       # average ReadCleanReq miss latency
system.l2.ReadSharedReq_avg_miss_latency::cpu0.data 95138.803784                       # average ReadSharedReq miss latency
system.l2.ReadSharedReq_avg_miss_latency::total 95138.803784                       # average ReadSharedReq miss latency
system.l2.demand_avg_miss_latency::cpu0.inst       100750                       # average overall miss latency
system.l2.demand_avg_miss_latency::cpu0.data 95147.491922                       # average overall miss latency
system.l2.demand_avg_miss_latency::total 95147.551964                       # average overall miss latency
system.l2.overall_avg_miss_latency::cpu0.inst       100750                       # average overall miss latency
system.l2.overall_avg_miss_latency::cpu0.data 95147.491922                       # average overall miss latency
system.l2.overall_avg_miss_latency::total 95147.551964                       # average overall miss latency
system.l2.blocked_cycles::no_mshrs                  0                       # number of cycles access was blocked
system.l2.blocked_cycles::no_targets                0                       # number of cycles access was blocked
system.l2.blocked::no_mshrs                         0                       # number of cycles access was blocked
system.l2.blocked::no_targets                       0                       # number of cycles access was blocked
system.l2.avg_blocked_cycles::no_mshrs            nan                       # average number of cycles each access was blocked
system.l2.avg_blocked_cycles::no_targets          nan                       # average number of cycles each access was blocked
system.l2.writebacks::writebacks                  361                       # number of writebacks
system.l2.writebacks::total                       361                       # number of writebacks
system.l2.ReadExReq_mshr_misses::cpu0.data          246                       # number of ReadExReq MSHR misses
system.l2.ReadExReq_mshr_misses::total            246                       # number of ReadExReq MSHR misses
system.l2.ReadCleanReq_mshr_misses::cpu0.inst            2                       # number of ReadCleanReq MSHR misses
system.l2.ReadCleanReq_mshr_misses::total            2                       # number of ReadCleanReq MSHR misses
system.l2.ReadSharedReq_mshr_misses::cpu0.data       186371                       # number of ReadSharedReq MSHR misses
system.l2.ReadSharedReq_mshr_misses::total       186371                       # number of ReadSharedReq MSHR misses
system.l2.demand_mshr_misses::cpu0.inst             2                       # number of demand (read+write) MSHR misses
system.l2.demand_mshr_misses::cpu0.data        186617                       # number of demand (read+write) MSHR misses
system.l2.demand_mshr_misses::total            186619                       # number of demand (read+write) MSHR misses
system.l2.overall_mshr_misses::cpu0.inst            2                       # number of overall MSHR misses
system.l2.overall_mshr_misses::cpu0.data       186617                       # number of overall MSHR misses
system.l2.overall_mshr_misses::total           186619                       # number of overall MSHR misses
system.l2.ReadExReq_mshr_miss_latency::cpu0.data     22565500                       # number of ReadExReq MSHR miss cycles
system.l2.ReadExReq_mshr_miss_latency::total     22565500                       # number of ReadExReq MSHR miss cycles
system.l2.ReadCleanReq_mshr_miss_latency::cpu0.inst       181500                       # number of ReadCleanReq MSHR miss cycles
system.l2.ReadCleanReq_mshr_miss_latency::total       181500                       # number of ReadCleanReq MSHR miss cycles
system.l2.ReadSharedReq_mshr_miss_latency::cpu0.data  15867414000                       # number of ReadSharedReq MSHR miss cycles
system.l2.ReadSharedReq_mshr_miss_latency::total  15867414000                       # number of ReadSharedReq MSHR miss cycles
system.l2.demand_mshr_miss_latency::cpu0.inst       181500                       # number of demand (read+write) MSHR miss cycles
system.l2.demand_mshr_miss_latency::cpu0.data  15889979500                       # number of demand (read+write) MSHR miss cycles
system.l2.demand_mshr_miss_latency::total  15890161000                       # number of demand (read+write) MSHR miss cycles
system.l2.overall_mshr_miss_latency::cpu0.inst       181500                       # number of overall MSHR miss cycles
system.l2.overall_mshr_miss_latency::cpu0.data  15889979500                       # number of overall MSHR miss cycles
system.l2.overall_mshr_miss_latency::total  15890161000                       # number of overall MSHR miss cycles
system.l2.ReadExReq_mshr_miss_rate::cpu0.data     0.244533                       # mshr miss rate for ReadExReq accesses
system.l2.ReadExReq_mshr_miss_rate::total     0.244533                       # mshr miss rate for ReadExReq accesses
system.l2.ReadCleanReq_mshr_miss_rate::cpu0.inst            1                       # mshr miss rate for ReadCleanReq accesses
system.l2.ReadCleanReq_mshr_miss_rate::total            1                       # mshr miss rate for ReadCleanReq accesses
system.l2.ReadSharedReq_mshr_miss_rate::cpu0.data     0.657335                       # mshr miss rate for ReadSharedReq accesses
system.l2.ReadSharedReq_mshr_miss_rate::total     0.657335                       # mshr miss rate for ReadSharedReq accesses
system.l2.demand_mshr_miss_rate::cpu0.inst            1                       # mshr miss rate for demand accesses
system.l2.demand_mshr_miss_rate::cpu0.data     0.655876                       # mshr miss rate for demand accesses
system.l2.demand_mshr_miss_rate::total       0.655878                       # mshr miss rate for demand accesses
system.l2.overall_mshr_miss_rate::cpu0.inst            1                       # mshr miss rate for overall accesses
system.l2.overall_mshr_miss_rate::cpu0.data     0.655876                       # mshr miss rate for overall accesses
system.l2.overall_mshr_miss_rate::total      0.655878                       # mshr miss rate for overall accesses
system.l2.ReadExReq_avg_mshr_miss_latency::cpu0.data 91729.674797                       # average ReadExReq mshr miss latency
system.l2.ReadExReq_avg_mshr_miss_latency::total 91729.674797                       # average ReadExReq mshr miss latency
system.l2.ReadCleanReq_avg_mshr_miss_latency::cpu0.inst        90750                       # average ReadCleanReq mshr miss latency
system.l2.ReadCleanReq_avg_mshr_miss_latency::total        90750                       # average ReadCleanReq mshr miss latency
system.l2.ReadSharedReq_avg_mshr_miss_latency::cpu0.data 85138.857440                       # average ReadSharedReq mshr miss latency
system.l2.ReadSharedReq_avg_mshr_miss_latency::total 85138.857440                       # average ReadSharedReq mshr miss latency
system.l2.demand_avg_mshr_miss_latency::cpu0.inst        90750                       # average overall mshr miss latency
system.l2.demand_avg_mshr_miss_latency::cpu0.data 85147.545508                       # average overall mshr miss latency
system.l2.demand_avg_mshr_miss_latency::total 85147.605549                       # average overall mshr miss latency
system.l2.overall_avg_mshr_miss_latency::cpu0.inst        90750                       # average overall mshr miss latency
system.l2.overall_avg_mshr_miss_latency::cpu0.data 85147.545508                       # average overall mshr miss latency
system.l2.overall_avg_mshr_miss_latency::total 85147.605549                       # average overall mshr miss latency
system.membus.snoop_filter.tot_requests        373236                       # Total number of requests made to the snoop filter.
system.membus.snoop_filter.hit_single_requests       186619                       # Number of requests hitting in the snoop filter with a single holder of the requested data.
system.membus.snoop_filter.hit_multi_requests            0                       # Number of requests hitting in the snoop filter with multiple (>1) holders of the requested data.
system.membus.snoop_filter.tot_snoops               0                       # Total number of snoops made to the snoop filter.
system.membus.snoop_filter.hit_single_snoops            0                       # Number of snoops hitting in the snoop filter with a single holder of the requested data.
system.membus.snoop_filter.hit_multi_snoops            0                       # Number of snoops hitting in the snoop filter with multiple (>1) holders of the requested data.
system.membus.pwrStateResidencyTicks::UNDEFINED  15267344125                       # Cumulative time (in ticks) in various power states
system.membus.trans_dist::ReadResp             186372                       # Transaction distribution
system.membus.trans_dist::WritebackDirty          361                       # Transaction distribution
system.membus.trans_dist::CleanEvict           186256                       # Transaction distribution
system.membus.trans_dist::ReadExReq               246                       # Transaction distribution
system.membus.trans_dist::ReadExResp              246                       # Transaction distribution
system.membus.trans_dist::ReadSharedReq        186373                       # Transaction distribution
system.membus.pkt_count_system.l2.mem_side::system.mem_ctrls.port       559854                       # Packet count per connected master and slave (bytes)
system.membus.pkt_count_system.l2.mem_side::total       559854                       # Packet count per connected master and slave (bytes)
system.membus.pkt_count::total                 559854                       # Packet count per connected master and slave (bytes)
system.membus.pkt_size_system.l2.mem_side::system.mem_ctrls.port     11966656                       # Cumulative packet size per connected master and slave (bytes)
system.membus.pkt_size_system.l2.mem_side::total     11966656                       # Cumulative packet size per connected master and slave (bytes)
system.membus.pkt_size::total                11966656                       # Cumulative packet size per connected master and slave (bytes)
system.membus.snoops                                0                       # Total snoops (count)
system.membus.snoopTraffic                          0                       # Total snoop traffic (bytes)
system.membus.snoop_fanout::samples            186619                       # Request fanout histogram
system.membus.snoop_fanout::mean                    0                       # Request fanout histogram
system.membus.snoop_fanout::stdev                   0                       # Request fanout histogram
system.membus.snoop_fanout::underflows              0      0.00%      0.00% # Request fanout histogram
system.membus.snoop_fanout::0                  186619    100.00%    100.00% # Request fanout histogram
system.membus.snoop_fanout::1                       0      0.00%    100.00% # Request fanout histogram
system.membus.snoop_fanout::overflows               0      0.00%    100.00% # Request fanout histogram
system.membus.snoop_fanout::min_value               0                       # Request fanout histogram
system.membus.snoop_fanout::max_value               0                       # Request fanout histogram
system.membus.snoop_fanout::total              186619                       # Request fanout histogram
system.membus.reqLayer8.occupancy           439026500                       # Layer occupancy (ticks)
system.membus.reqLayer8.utilization               2.9                       # Layer utilization (%)
system.membus.respLayer1.occupancy         1010928750                       # Layer occupancy (ticks)
system.membus.respLayer1.utilization              6.6                       # Layer utilization (%)
system.tol2bus.snoop_filter.tot_requests       569066                       # Total number of requests made to the snoop filter.
system.tol2bus.snoop_filter.hit_single_requests       284535                       # Number of requests hitting in the snoop filter with a single holder of the requested data.
system.tol2bus.snoop_filter.hit_multi_requests          391                       # Number of requests hitting in the snoop filter with multiple (>1) holders of the requested data.
system.tol2bus.snoop_filter.tot_snoops              3                       # Total number of snoops made to the snoop filter.
system.tol2bus.snoop_filter.hit_single_snoops            3                       # Number of snoops hitting in the snoop filter with a single holder of the requested data.
system.tol2bus.snoop_filter.hit_multi_snoops            0                       # Number of snoops hitting in the snoop filter with multiple (>1) holders of the requested data.
system.tol2bus.pwrStateResidencyTicks::UNDEFINED  15267344125                       # Cumulative time (in ticks) in various power states
system.tol2bus.trans_dist::ReadResp            283527                       # Transaction distribution
system.tol2bus.trans_dist::WritebackDirty         3265                       # Transaction distribution
system.tol2bus.trans_dist::WritebackClean            2                       # Transaction distribution
system.tol2bus.trans_dist::CleanEvict          467886                       # Transaction distribution
system.tol2bus.trans_dist::ReadExReq             1006                       # Transaction distribution
system.tol2bus.trans_dist::ReadExResp            1006                       # Transaction distribution
system.tol2bus.trans_dist::ReadCleanReq             2                       # Transaction distribution
system.tol2bus.trans_dist::ReadSharedReq       283525                       # Transaction distribution
system.tol2bus.pkt_count_system.cpu0.icache.mem_side::system.l2.cpu_side            6                       # Packet count per connected master and slave (bytes)
system.tol2bus.pkt_count_system.cpu0.dcache.mem_side::system.l2.cpu_side       853593                       # Packet count per connected master and slave (bytes)
system.tol2bus.pkt_count::total                853599                       # Packet count per connected master and slave (bytes)
system.tol2bus.pkt_size_system.cpu0.icache.mem_side::system.l2.cpu_side          256                       # Cumulative packet size per connected master and slave (bytes)
system.tol2bus.pkt_size_system.cpu0.dcache.mem_side::system.l2.cpu_side     18395840                       # Cumulative packet size per connected master and slave (bytes)
system.tol2bus.pkt_size::total               18396096                       # Cumulative packet size per connected master and slave (bytes)
system.tol2bus.snoops                          186620                       # Total snoops (count)
system.tol2bus.snoopTraffic                     23104                       # Total snoop traffic (bytes)
system.tol2bus.snoop_fanout::samples           471153                       # Request fanout histogram
system.tol2bus.snoop_fanout::mean            0.000840                       # Request fanout histogram
system.tol2bus.snoop_fanout::stdev           0.028979                       # Request fanout histogram
system.tol2bus.snoop_fanout::underflows             0      0.00%      0.00% # Request fanout histogram
system.tol2bus.snoop_fanout::0                 470757     99.92%     99.92% # Request fanout histogram
system.tol2bus.snoop_fanout::1                    396      0.08%    100.00% # Request fanout histogram
system.tol2bus.snoop_fanout::2                      0      0.00%    100.00% # Request fanout histogram
system.tol2bus.snoop_fanout::3                      0      0.00%    100.00% # Request fanout histogram
system.tol2bus.snoop_fanout::4                      0      0.00%    100.00% # Request fanout histogram
system.tol2bus.snoop_fanout::5                      0      0.00%    100.00% # Request fanout histogram
system.tol2bus.snoop_fanout::6                      0      0.00%    100.00% # Request fanout histogram
system.tol2bus.snoop_fanout::7                      0      0.00%    100.00% # Request fanout histogram
system.tol2bus.snoop_fanout::8                      0      0.00%    100.00% # Request fanout histogram
system.tol2bus.snoop_fanout::9                      0      0.00%    100.00% # Request fanout histogram
system.tol2bus.snoop_fanout::10                     0      0.00%    100.00% # Request fanout histogram
system.tol2bus.snoop_fanout::11                     0      0.00%    100.00% # Request fanout histogram
system.tol2bus.snoop_fanout::12                     0      0.00%    100.00% # Request fanout histogram
system.tol2bus.snoop_fanout::13                     0      0.00%    100.00% # Request fanout histogram
system.tol2bus.snoop_fanout::14                     0      0.00%    100.00% # Request fanout histogram
system.tol2bus.snoop_fanout::15                     0      0.00%    100.00% # Request fanout histogram
system.tol2bus.snoop_fanout::16                     0      0.00%    100.00% # Request fanout histogram
system.tol2bus.snoop_fanout::overflows              0      0.00%    100.00% # Request fanout histogram
system.tol2bus.snoop_fanout::min_value              0                       # Request fanout histogram
system.tol2bus.snoop_fanout::max_value              1                       # Request fanout histogram
system.tol2bus.snoop_fanout::total             471153                       # Request fanout histogram
system.tol2bus.reqLayer0.occupancy          287439000                       # Layer occupancy (ticks)
system.tol2bus.reqLayer0.utilization              1.9                       # Layer utilization (%)
system.tol2bus.respLayer0.occupancy              3000                       # Layer occupancy (ticks)
system.tol2bus.respLayer0.utilization             0.0                       # Layer utilization (%)
system.tol2bus.respLayer1.occupancy         426796500                       # Layer occupancy (ticks)
system.tol2bus.respLayer1.utilization             2.8                       # Layer utilization (%)

---------- End Simulation Statistics   ----------
