
---------- Begin Simulation Statistics ----------
sim_seconds                                  0.015267                       # Number of seconds simulated
sim_ticks                                 15267344125                       # Number of ticks simulated
final_tick                               1832081295000                       # Number of ticks from beginning of simulation (restored from checkpoints and never reset)
sim_freq                                 1000000000000                       # Frequency of simulated ticks
host_inst_rate                               18307821                       # Simulator instruction rate (inst/s)
host_op_rate                                 33260139                       # Simulator op (including micro ops) rate (op/s)
host_tick_rate                               67722930                       # Simulator tick rate (ticks/s)
host_mem_usage                                2332668                       # Number of bytes of host memory used
host_seconds                                   225.44                       # Real time elapsed on the host
sim_insts                                  4127284304                       # Number of instructions simulated
sim_ops                                    7498109905                       # Number of ops (including micro ops) simulated
system.voltage_domain.voltage                       1                       # Voltage in Volts
system.clk_domain.clock                          1000                       # Clock period in ticks
system.mem_ctrls.pwrStateResidencyTicks::UNDEFINED  15267344125                       # Cumulative time (in ticks) in various power states
system.mem_ctrls.bytes_read::cpu0.data         909120                       # Number of bytes read from this memory
system.mem_ctrls.bytes_read::total             909120                       # Number of bytes read from this memory
system.mem_ctrls.bytes_written::writebacks       860800                       # Number of bytes written to this memory
system.mem_ctrls.bytes_written::total          860800                       # Number of bytes written to this memory
system.mem_ctrls.num_reads::cpu0.data           14205                       # Number of read requests responded to by this memory
system.mem_ctrls.num_reads::total               14205                       # Number of read requests responded to by this memory
system.mem_ctrls.num_writes::writebacks         13450                       # Number of write requests responded to by this memory
system.mem_ctrls.num_writes::total              13450                       # Number of write requests responded to by this memory
system.mem_ctrls.bw_read::cpu0.data          59546703                       # Total read bandwidth from this memory (bytes/s)
system.mem_ctrls.bw_read::total              59546703                       # Total read bandwidth from this memory (bytes/s)
system.mem_ctrls.bw_write::writebacks        56381778                       # Write bandwidth from this memory (bytes/s)
system.mem_ctrls.bw_write::total             56381778                       # Write bandwidth from this memory (bytes/s)
system.mem_ctrls.bw_total::writebacks        56381778                       # Total bandwidth to/from this memory (bytes/s)
system.mem_ctrls.bw_total::cpu0.data         59546703                       # Total bandwidth to/from this memory (bytes/s)
system.mem_ctrls.bw_total::total            115928480                       # Total bandwidth to/from this memory (bytes/s)
system.mem_ctrls.readReqs                       14205                       # Number of read requests accepted
system.mem_ctrls.writeReqs                      13450                       # Number of write requests accepted
system.mem_ctrls.readBursts                     14205                       # Number of DRAM read bursts, including those serviced by the write queue
system.mem_ctrls.writeBursts                    13450                       # Number of DRAM write bursts, including those merged in the write queue
system.mem_ctrls.bytesReadDRAM                 909120                       # Total number of bytes read from DRAM
system.mem_ctrls.bytesReadWrQ                       0                       # Total number of bytes read from write queue
system.mem_ctrls.bytesWritten                  860736                       # Total number of bytes written to DRAM
system.mem_ctrls.bytesReadSys                  909120                       # Total read bytes from the system interface side
system.mem_ctrls.bytesWrittenSys               860800                       # Total written bytes from the system interface side
system.mem_ctrls.servicedByWrQ                      0                       # Number of DRAM read bursts serviced by the write queue
system.mem_ctrls.mergedWrBursts                     0                       # Number of DRAM write bursts merged with an existing one
system.mem_ctrls.neitherReadNorWriteReqs            0                       # Number of requests that are neither read nor write
system.mem_ctrls.perBankRdBursts::0               768                       # Per bank write bursts
system.mem_ctrls.perBankRdBursts::1               768                       # Per bank write bursts
system.mem_ctrls.perBankRdBursts::2               791                       # Per bank write bursts
system.mem_ctrls.perBankRdBursts::3               790                       # Per bank write bursts
system.mem_ctrls.perBankRdBursts::4               768                       # Per bank write bursts
system.mem_ctrls.perBankRdBursts::5               885                       # Per bank write bursts
system.mem_ctrls.perBankRdBursts::6               998                       # Per bank write bursts
system.mem_ctrls.perBankRdBursts::7              1152                       # Per bank write bursts
system.mem_ctrls.perBankRdBursts::8              1174                       # Per bank write bursts
system.mem_ctrls.perBankRdBursts::9              1062                       # Per bank write bursts
system.mem_ctrls.perBankRdBursts::10             1008                       # Per bank write bursts
system.mem_ctrls.perBankRdBursts::11              896                       # Per bank write bursts
system.mem_ctrls.perBankRdBursts::12              818                       # Per bank write bursts
system.mem_ctrls.perBankRdBursts::13              791                       # Per bank write bursts
system.mem_ctrls.perBankRdBursts::14              768                       # Per bank write bursts
system.mem_ctrls.perBankRdBursts::15              768                       # Per bank write bursts
system.mem_ctrls.perBankWrBursts::0               768                       # Per bank write bursts
system.mem_ctrls.perBankWrBursts::1               768                       # Per bank write bursts
system.mem_ctrls.perBankWrBursts::2               769                       # Per bank write bursts
system.mem_ctrls.perBankWrBursts::3               769                       # Per bank write bursts
system.mem_ctrls.perBankWrBursts::4               657                       # Per bank write bursts
system.mem_ctrls.perBankWrBursts::5               768                       # Per bank write bursts
system.mem_ctrls.perBankWrBursts::6               872                       # Per bank write bursts
system.mem_ctrls.perBankWrBursts::7              1010                       # Per bank write bursts
system.mem_ctrls.perBankWrBursts::8              1025                       # Per bank write bursts
system.mem_ctrls.perBankWrBursts::9              1024                       # Per bank write bursts
system.mem_ctrls.perBankWrBursts::10              993                       # Per bank write bursts
system.mem_ctrls.perBankWrBursts::11              896                       # Per bank write bursts
system.mem_ctrls.perBankWrBursts::12              817                       # Per bank write bursts
system.mem_ctrls.perBankWrBursts::13              777                       # Per bank write bursts
system.mem_ctrls.perBankWrBursts::14              768                       # Per bank write bursts
system.mem_ctrls.perBankWrBursts::15              768                       # Per bank write bursts
system.mem_ctrls.numRdRetry                         0                       # Number of times read queue was full causing retry
system.mem_ctrls.numWrRetry                         0                       # Number of times write queue was full causing retry
system.mem_ctrls.totGap                   15267796000                       # Total gap between requests
system.mem_ctrls.readPktSize::0                     0                       # Read request sizes (log2)
system.mem_ctrls.readPktSize::1                     0                       # Read request sizes (log2)
system.mem_ctrls.readPktSize::2                     0                       # Read request sizes (log2)
system.mem_ctrls.readPktSize::3                     0                       # Read request sizes (log2)
system.mem_ctrls.readPktSize::4                     0                       # Read request sizes (log2)
system.mem_ctrls.readPktSize::5                     0                       # Read request sizes (log2)
system.mem_ctrls.readPktSize::6                 14205                       # Read request sizes (log2)
system.mem_ctrls.writePktSize::0                    0                       # Write request sizes (log2)
system.mem_ctrls.writePktSize::1                    0                       # Write request sizes (log2)
system.mem_ctrls.writePktSize::2                    0                       # Write request sizes (log2)
system.mem_ctrls.writePktSize::3                    0                       # Write request sizes (log2)
system.mem_ctrls.writePktSize::4                    0                       # Write request sizes (log2)
system.mem_ctrls.writePktSize::5                    0                       # Write request sizes (log2)
system.mem_ctrls.writePktSize::6                13450                       # Write request sizes (log2)
system.mem_ctrls.rdQLenPdf::0                   14205                       # What read queue length does an incoming req see
system.mem_ctrls.rdQLenPdf::1                       0                       # What read queue length does an incoming req see
system.mem_ctrls.rdQLenPdf::2                       0                       # What read queue length does an incoming req see
system.mem_ctrls.rdQLenPdf::3                       0                       # What read queue length does an incoming req see
system.mem_ctrls.rdQLenPdf::4                       0                       # What read queue length does an incoming req see
system.mem_ctrls.rdQLenPdf::5                       0                       # What read queue length does an incoming req see
system.mem_ctrls.rdQLenPdf::6                       0                       # What read queue length does an incoming req see
system.mem_ctrls.rdQLenPdf::7                       0                       # What read queue length does an incoming req see
system.mem_ctrls.rdQLenPdf::8                       0                       # What read queue length does an incoming req see
system.mem_ctrls.rdQLenPdf::9                       0                       # What read queue length does an incoming req see
system.mem_ctrls.rdQLenPdf::10                      0                       # What read queue length does an incoming req see
system.mem_ctrls.rdQLenPdf::11                      0                       # What read queue length does an incoming req see
system.mem_ctrls.rdQLenPdf::12                      0                       # What read queue length does an incoming req see
system.mem_ctrls.rdQLenPdf::13                      0                       # What read queue length does an incoming req see
system.mem_ctrls.rdQLenPdf::14                      0                       # What read queue length does an incoming req see
system.mem_ctrls.rdQLenPdf::15                      0                       # What read queue length does an incoming req see
system.mem_ctrls.rdQLenPdf::16                      0                       # What read queue length does an incoming req see
system.mem_ctrls.rdQLenPdf::17                      0                       # What read queue length does an incoming req see
system.mem_ctrls.rdQLenPdf::18                      0                       # What read queue length does an incoming req see
system.mem_ctrls.rdQLenPdf::19                      0                       # What read queue length does an incoming req see
system.mem_ctrls.rdQLenPdf::20                      0                       # What read queue length does an incoming req see
system.mem_ctrls.rdQLenPdf::21                      0                       # What read queue length does an incoming req see
system.mem_ctrls.rdQLenPdf::22                      0                       # What read queue length does an incoming req see
system.mem_ctrls.rdQLenPdf::23                      0                       # What read queue length does an incoming req see
system.mem_ctrls.rdQLenPdf::24                      0                       # What read queue length does an incoming req see
system.mem_ctrls.rdQLenPdf::25                      0                       # What read queue length does an incoming req see
system.mem_ctrls.rdQLenPdf::26                      0                       # What read queue length does an incoming req see
system.mem_ctrls.rdQLenPdf::27                      0                       # What read queue length does an incoming req see
system.mem_ctrls.rdQLenPdf::28                      0                       # What read queue length does an incoming req see
system.mem_ctrls.rdQLenPdf::29                      0                       # What read queue length does an incoming req see
system.mem_ctrls.rdQLenPdf::30                      0                       # What read queue length does an incoming req see
system.mem_ctrls.rdQLenPdf::31                      0                       # What read queue length does an incoming req see
system.mem_ctrls.wrQLenPdf::0                       0                       # What write queue length does an incoming req see
system.mem_ctrls.wrQLenPdf::1                       0                       # What write queue length does an incoming req see
system.mem_ctrls.wrQLenPdf::2                       0                       # What write queue length does an incoming req see
system.mem_ctrls.wrQLenPdf::3                       0                       # What write queue length does an incoming req see
system.mem_ctrls.wrQLenPdf::4                       0                       # What write queue length does an incoming req see
system.mem_ctrls.wrQLenPdf::5                       0                       # What write queue length does an incoming req see
system.mem_ctrls.wrQLenPdf::6                       0                       # What write queue length does an incoming req see
system.mem_ctrls.wrQLenPdf::7                       0                       # What write queue length does an incoming req see
system.mem_ctrls.wrQLenPdf::8                       0                       # What write queue length does an incoming req see
system.mem_ctrls.wrQLenPdf::9                       0                       # What write queue length does an incoming req see
system.mem_ctrls.wrQLenPdf::10                      0                       # What write queue length does an incoming req see
system.mem_ctrls.wrQLenPdf::11                      0                       # What write queue length does an incoming req see
system.mem_ctrls.wrQLenPdf::12                      0                       # What write queue length does an incoming req see
system.mem_ctrls.wrQLenPdf::13                      0                       # What write queue length does an incoming req see
system.mem_ctrls.wrQLenPdf::14                      0                       # What write queue length does an incoming req see
system.mem_ctrls.wrQLenPdf::15                    724                       # What write queue length does an incoming req see
system.mem_ctrls.wrQLenPdf::16                    725                       # What write queue length does an incoming req see
system.mem_ctrls.wrQLenPdf::17                    750                       # What write queue length does an incoming req see
system.mem_ctrls.wrQLenPdf::18                    750                       # What write queue length does an incoming req see
system.mem_ctrls.wrQLenPdf::19                    750                       # What write queue length does an incoming req see
system.mem_ctrls.wrQLenPdf::20                    750                       # What write queue length does an incoming req see
system.mem_ctrls.wrQLenPdf::21                    750                       # What write queue length does an incoming req see
system.mem_ctrls.wrQLenPdf::22                    750                       # What write queue length does an incoming req see
system.mem_ctrls.wrQLenPdf::23                    750                       # What write queue length does an incoming req see
system.mem_ctrls.wrQLenPdf::24                    750                       # What write queue length does an incoming req see
system.mem_ctrls.wrQLenPdf::25                    750                       # What write queue length does an incoming req see
system.mem_ctrls.wrQLenPdf::26                    750                       # What write queue length does an incoming req see
system.mem_ctrls.wrQLenPdf::27                    750                       # What write queue length does an incoming req see
system.mem_ctrls.wrQLenPdf::28                    750                       # What write queue length does an incoming req see
system.mem_ctrls.wrQLenPdf::29                    750                       # What write queue length does an incoming req see
system.mem_ctrls.wrQLenPdf::30                    751                       # What write queue length does an incoming req see
system.mem_ctrls.wrQLenPdf::31                    750                       # What write queue length does an incoming req see
system.mem_ctrls.wrQLenPdf::32                    750                       # What write queue length does an incoming req see
system.mem_ctrls.wrQLenPdf::33                      0                       # What write queue length does an incoming req see
system.mem_ctrls.wrQLenPdf::34                      0                       # What write queue length does an incoming req see
system.mem_ctrls.wrQLenPdf::35                      0                       # What write queue length does an incoming req see
system.mem_ctrls.wrQLenPdf::36                      0                       # What write queue length does an incoming req see
system.mem_ctrls.wrQLenPdf::37                      0                       # What write queue length does an incoming req see
system.mem_ctrls.wrQLenPdf::38                      0                       # What write queue length does an incoming req see
system.mem_ctrls.wrQLenPdf::39                      0                       # What write queue length does an incoming req see
system.mem_ctrls.wrQLenPdf::40                      0                       # What write queue length does an incoming req see
system.mem_ctrls.wrQLenPdf::41                      0                       # What write queue length does an incoming req see
system.mem_ctrls.wrQLenPdf::42                      0                       # What write queue length does an incoming req see
system.mem_ctrls.wrQLenPdf::43                      0                       # What write queue length does an incoming req see
system.mem_ctrls.wrQLenPdf::44                      0                       # What write queue length does an incoming req see
system.mem_ctrls.wrQLenPdf::45                      0                       # What write queue length does an incoming req see
system.mem_ctrls.wrQLenPdf::46                      0                       # What write queue length does an incoming req see
system.mem_ctrls.wrQLenPdf::47                      0                       # What write queue length does an incoming req see
system.mem_ctrls.wrQLenPdf::48                      0                       # What write queue length does an incoming req see
system.mem_ctrls.wrQLenPdf::49                      0                       # What write queue length does an incoming req see
system.mem_ctrls.wrQLenPdf::50                      0                       # What write queue length does an incoming req see
system.mem_ctrls.wrQLenPdf::51                      0                       # What write queue length does an incoming req see
system.mem_ctrls.wrQLenPdf::52                      0                       # What write queue length does an incoming req see
system.mem_ctrls.wrQLenPdf::53                      0                       # What write queue length does an incoming req see
system.mem_ctrls.wrQLenPdf::54                      0                       # What write queue length does an incoming req see
system.mem_ctrls.wrQLenPdf::55                      0                       # What write queue length does an incoming req see
system.mem_ctrls.wrQLenPdf::56                      0                       # What write queue length does an incoming req see
system.mem_ctrls.wrQLenPdf::57                      0                       # What write queue length does an incoming req see
system.mem_ctrls.wrQLenPdf::58                      0                       # What write queue length does an incoming req see
system.mem_ctrls.wrQLenPdf::59                      0                       # What write queue length does an incoming req see
system.mem_ctrls.wrQLenPdf::60                      0                       # What write queue length does an incoming req see
system.mem_ctrls.wrQLenPdf::61                      0                       # What write queue length does an incoming req see
system.mem_ctrls.wrQLenPdf::62                      0                       # What write queue length does an incoming req see
system.mem_ctrls.wrQLenPdf::63                      0                       # What write queue length does an incoming req see
system.mem_ctrls.bytesPerActivate::samples         5860                       # Bytes accessed per row activation
system.mem_ctrls.bytesPerActivate::mean    302.034130                       # Bytes accessed per row activation
system.mem_ctrls.bytesPerActivate::gmean   187.888947                       # Bytes accessed per row activation
system.mem_ctrls.bytesPerActivate::stdev   295.034274                       # Bytes accessed per row activation
system.mem_ctrls.bytesPerActivate::0-127         2271     38.75%     38.75% # Bytes accessed per row activation
system.mem_ctrls.bytesPerActivate::128-255          817     13.94%     52.70% # Bytes accessed per row activation
system.mem_ctrls.bytesPerActivate::256-383          547      9.33%     62.03% # Bytes accessed per row activation
system.mem_ctrls.bytesPerActivate::384-511         1464     24.98%     87.01% # Bytes accessed per row activation
system.mem_ctrls.bytesPerActivate::512-639           32      0.55%     87.56% # Bytes accessed per row activation
system.mem_ctrls.bytesPerActivate::640-767           45      0.77%     88.33% # Bytes accessed per row activation
system.mem_ctrls.bytesPerActivate::768-895           58      0.99%     89.32% # Bytes accessed per row activation
system.mem_ctrls.bytesPerActivate::896-1023           84      1.43%     90.75% # Bytes accessed per row activation
system.mem_ctrls.bytesPerActivate::1024-1151          542      9.25%    100.00% # Bytes accessed per row activation
system.mem_ctrls.bytesPerActivate::total         5860                       # Bytes accessed per row activation
system.mem_ctrls.rdPerTurnAround::samples          750                       # Reads before turning the bus around for writes
system.mem_ctrls.rdPerTurnAround::mean      18.937333                       # Reads before turning the bus around for writes
system.mem_ctrls.rdPerTurnAround::gmean     18.440432                       # Reads before turning the bus around for writes
system.mem_ctrls.rdPerTurnAround::stdev      9.681583                       # Reads before turning the bus around for writes
system.mem_ctrls.rdPerTurnAround::16-23           734     97.87%     97.87% # Reads before turning the bus around for writes
system.mem_ctrls.rdPerTurnAround::24-31            10      1.33%     99.20% # Reads before turning the bus around for writes
system.mem_ctrls.rdPerTurnAround::32-39             1      0.13%     99.33% # Reads before turning the bus around for writes
system.mem_ctrls.rdPerTurnAround::64-71             1      0.13%     99.47% # Reads before turning the bus around for writes
system.mem_ctrls.rdPerTurnAround::72-79             2      0.27%     99.73% # Reads before turning the bus around for writes
system.mem_ctrls.rdPerTurnAround::184-191            1      0.13%     99.87% # Reads before turning the bus around for writes
system.mem_ctrls.rdPerTurnAround::192-199            1      0.13%    100.00% # Reads before turning the bus around for writes
system.mem_ctrls.rdPerTurnAround::total           750                       # Reads before turning the bus around for writes
system.mem_ctrls.wrPerTurnAround::samples          750                       # Writes before turning the bus around for reads
system.mem_ctrls.wrPerTurnAround::mean      17.932000                       # Writes before turning the bus around for reads
system.mem_ctrls.wrPerTurnAround::gmean     17.928102                       # Writes before turning the bus around for reads
system.mem_ctrls.wrPerTurnAround::stdev      0.360855                       # Writes before turning the bus around for reads
system.mem_ctrls.wrPerTurnAround::16               25      3.33%      3.33% # Writes before turning the bus around for reads
system.mem_ctrls.wrPerTurnAround::17                1      0.13%      3.47% # Writes before turning the bus around for reads
system.mem_ctrls.wrPerTurnAround::18              724     96.53%    100.00% # Writes before turning the bus around for reads
system.mem_ctrls.wrPerTurnAround::total           750                       # Writes before turning the bus around for reads
system.mem_ctrls.totQLat                    351332250                       # Total ticks spent queuing
system.mem_ctrls.totMemAccLat               617676000                       # Total ticks spent from burst creation until serviced by the DRAM
system.mem_ctrls.totBusLat                   71025000                       # Total ticks spent in databus transfers
system.mem_ctrls.avgQLat                     24733.00                       # Average queueing delay per DRAM burst
system.mem_ctrls.avgBusLat                    5000.00                       # Average bus latency per DRAM burst
system.mem_ctrls.avgMemAccLat                43483.00                       # Average memory access latency per DRAM burst
system.mem_ctrls.avgRdBW                        59.55                       # Average DRAM read bandwidth in MiByte/s
system.mem_ctrls.avgWrBW                        56.38                       # Average achieved write bandwidth in MiByte/s
system.mem_ctrls.avgRdBWSys                     59.55                       # Average system read bandwidth in MiByte/s
system.mem_ctrls.avgWrBWSys                     56.38                       # Average system write bandwidth in MiByte/s
system.mem_ctrls.peakBW                      12800.00                       # Theoretical peak bandwidth in MiByte/s
system.mem_ctrls.busUtil                         0.91                       # Data bus utilization in percentage
system.mem_ctrls.busUtilRead                     0.47                       # Data bus utilization in percentage for reads
system.mem_ctrls.busUtilWrite                    0.44                       # Data bus utilization in percentage for writes
system.mem_ctrls.avgRdQLen                       1.00                       # Average read queue length when enqueuing
system.mem_ctrls.avgWrQLen                      24.64                       # Average write queue length when enqueuing
system.mem_ctrls.readRowHits                    10335                       # Number of row buffer hits during reads
system.mem_ctrls.writeRowHits                   11459                       # Number of row buffer hits during writes
system.mem_ctrls.readRowHitRate                 72.76                       # Row buffer hit rate for reads
system.mem_ctrls.writeRowHitRate                85.20                       # Row buffer hit rate for writes
system.mem_ctrls.avgGap                     552080.85                       # Average gap between requests
system.mem_ctrls.pageHitRate                    78.81                       # Row buffer hit rate, read and write combined
system.mem_ctrls_0.actEnergy                 18778200                       # Energy for activate commands per rank (pJ)
system.mem_ctrls_0.preEnergy                  9984645                       # Energy for precharge commands per rank (pJ)
system.mem_ctrls_0.readEnergy                49408800                       # Energy for read commands per rank (pJ)
system.mem_ctrls_0.writeEnergy               33308820                       # Energy for write commands per rank (pJ)
system.mem_ctrls_0.refreshEnergy         1119874080.000000                       # Energy for refresh commands per rank (pJ)
system.mem_ctrls_0.actBackEnergy            567300480                       # Energy for active background per rank (pJ)
system.mem_ctrls_0.preBackEnergy             60828960                       # Energy for precharge background per rank (pJ)
system.mem_ctrls_0.actPowerDownEnergy      3359518440                       # Energy for active power-down per rank (pJ)
system.mem_ctrls_0.prePowerDownEnergy      1185544320                       # Energy for precharge power-down per rank (pJ)
system.mem_ctrls_0.selfRefreshEnergy        996253680                       # Energy for self refresh per rank (pJ)
system.mem_ctrls_0.totalEnergy             7400915295                       # Total energy per rank (pJ)
system.mem_ctrls_0.averagePower            484.754600                       # Core power per rank (mW)
system.mem_ctrls_0.totalIdleTime          13855258875                       # Total Idle time Per DRAM Rank
system.mem_ctrls_0.memoryStateTime::IDLE    107277000                       # Time in different power states
system.mem_ctrls_0.memoryStateTime::REF     475688000                       # Time in different power states
system.mem_ctrls_0.memoryStateTime::SREF   3409874500                       # Time in different power states
system.mem_ctrls_0.memoryStateTime::PRE_PDN   3087269000                       # Time in different power states
system.mem_ctrls_0.memoryStateTime::ACT     819846500                       # Time in different power states
system.mem_ctrls_0.memoryStateTime::ACT_PDN   7367389125                       # Time in different power states
system.mem_ctrls_1.actEnergy                 23062200                       # Energy for activate commands per rank (pJ)
system.mem_ctrls_1.preEnergy                 12254055                       # Energy for precharge commands per rank (pJ)
system.mem_ctrls_1.readEnergy                52014900                       # Energy for read commands per rank (pJ)
system.mem_ctrls_1.writeEnergy               36894960                       # Energy for write commands per rank (pJ)
system.mem_ctrls_1.refreshEnergy         1181338080.000000                       # Energy for refresh commands per rank (pJ)
system.mem_ctrls_1.actBackEnergy            736703340                       # Energy for active background per rank (pJ)
system.mem_ctrls_1.preBackEnergy             54000000                       # Energy for precharge background per rank (pJ)
system.mem_ctrls_1.actPowerDownEnergy      3633258660                       # Energy for active power-down per rank (pJ)
system.mem_ctrls_1.prePowerDownEnergy      1232961120                       # Energy for precharge power-down per rank (pJ)
system.mem_ctrls_1.selfRefreshEnergy        713906760                       # Energy for self refresh per rank (pJ)
system.mem_ctrls_1.totalEnergy             7676786865                       # Total energy per rank (pJ)
system.mem_ctrls_1.averagePower            502.823988                       # Core power per rank (mW)
system.mem_ctrls_1.totalIdleTime          13510245625                       # Total Idle time Per DRAM Rank
system.mem_ctrls_1.memoryStateTime::IDLE     89524250                       # Time in different power states
system.mem_ctrls_1.memoryStateTime::REF     501430000                       # Time in different power states
system.mem_ctrls_1.memoryStateTime::SREF   2331760875                       # Time in different power states
system.mem_ctrls_1.memoryStateTime::PRE_PDN   3210816750                       # Time in different power states
system.mem_ctrls_1.memoryStateTime::ACT    1166001750                       # Time in different power states
system.mem_ctrls_1.memoryStateTime::ACT_PDN   7967810500                       # Time in different power states
system.pwrStateResidencyTicks::UNDEFINED  15267344125                       # Cumulative time (in ticks) in various power states
system.cpu0.branchPred.lookups                5253889                       # Number of BP lookups
system.cpu0.branchPred.condPredicted          5253889                       # Number of conditional branches predicted
system.cpu0.branchPred.condIncorrect           109859                       # Number of conditional branches incorrect
system.cpu0.branchPred.BTBLookups             3580449                       # Number of BTB lookups
system.cpu0.branchPred.BTBHits                      0                       # Number of BTB hits
system.cpu0.branchPred.BTBCorrect                   0                       # Number of correct BTB predictions (this stat may not work properly.
system.cpu0.branchPred.BTBHitPct             0.000000                       # BTB Hit Percentage
system.cpu0.branchPred.usedRAS                 731450                       # Number of times the RAS was used to get a target.
system.cpu0.branchPred.RASInCorrect                 2                       # Number of incorrect RAS predictions.
system.cpu0.branchPred.indirectLookups        3580449                       # Number of indirect predictor lookups.
system.cpu0.branchPred.indirectHits           2516856                       # Number of indirect target hits.
system.cpu0.branchPred.indirectMisses         1063593                       # Number of indirect misses.
system.cpu0.branchPredindirectMispredicted            7                       # Number of mispredicted indirect branches.
system.cpu_voltage_domain.voltage                   1                       # Voltage in Volts
system.cpu_clk_domain.clock                       500                       # Clock period in ticks
system.cpu0.dtb.walker.pwrStateResidencyTicks::UNDEFINED  15267344125                       # Cumulative time (in ticks) in various power states
system.cpu0.dtb.rdAccesses                    8917394                       # TLB accesses on read requests
system.cpu0.dtb.wrAccesses                    2092859                       # TLB accesses on write requests
system.cpu0.dtb.rdMisses                          225                       # TLB misses on read requests
system.cpu0.dtb.wrMisses                            0                       # TLB misses on write requests
system.cpu0.apic_clk_domain.clock                8000                       # Clock period in ticks
system.cpu0.interrupts.pwrStateResidencyTicks::UNDEFINED  15267344125                       # Cumulative time (in ticks) in various power states
system.cpu0.itb.walker.pwrStateResidencyTicks::UNDEFINED  15267344125                       # Cumulative time (in ticks) in various power states
system.cpu0.itb.rdAccesses                          0                       # TLB accesses on read requests
system.cpu0.itb.wrAccesses                    6284411                       # TLB accesses on write requests
system.cpu0.itb.rdMisses                            0                       # TLB misses on read requests
system.cpu0.itb.wrMisses                            0                       # TLB misses on write requests
system.cpu0.workload.numSyscalls                    0                       # Number of system calls
system.cpu0.pwrStateResidencyTicks::ON    15267344125                       # Cumulative time (in ticks) in various power states
system.cpu0.numCycles                        30534689                       # number of cpu cycles simulated
system.cpu0.numWorkItemsStarted                     0                       # number of work items this cpu started
system.cpu0.numWorkItemsCompleted                   0                       # number of work items this cpu completed
system.cpu0.fetch.icacheStallCycles           6337112                       # Number of cycles fetch is stalled on an Icache miss
system.cpu0.fetch.Insts                      46481244                       # Number of instructions fetch has processed
system.cpu0.fetch.Branches                    5253889                       # Number of branches that fetch encountered
system.cpu0.fetch.predictedBranches           3248306                       # Number of branches that fetch has predicted taken
system.cpu0.fetch.Cycles                     24087617                       # Number of cycles fetch has run and was not squashing or blocked
system.cpu0.fetch.SquashCycles                 219920                       # Number of cycles fetch has spent squashing
system.cpu0.fetch.CacheLines                  6284411                       # Number of cache lines fetched
system.cpu0.fetch.IcacheSquashes                57236                       # Number of outstanding Icache misses that were squashed
system.cpu0.fetch.rateDist::samples          30534689                       # Number of instructions fetched each cycle (Total)
system.cpu0.fetch.rateDist::mean             2.659548                       # Number of instructions fetched each cycle (Total)
system.cpu0.fetch.rateDist::stdev            3.373434                       # Number of instructions fetched each cycle (Total)
system.cpu0.fetch.rateDist::underflows              0      0.00%      0.00% # Number of instructions fetched each cycle (Total)
system.cpu0.fetch.rateDist::0                16774863     54.94%     54.94% # Number of instructions fetched each cycle (Total)
system.cpu0.fetch.rateDist::1                  745310      2.44%     57.38% # Number of instructions fetched each cycle (Total)
system.cpu0.fetch.rateDist::2                 1661076      5.44%     62.82% # Number of instructions fetched each cycle (Total)
system.cpu0.fetch.rateDist::3                  646837      2.12%     64.94% # Number of instructions fetched each cycle (Total)
system.cpu0.fetch.rateDist::4                  958178      3.14%     68.07% # Number of instructions fetched each cycle (Total)
system.cpu0.fetch.rateDist::5                 1532085      5.02%     73.09% # Number of instructions fetched each cycle (Total)
system.cpu0.fetch.rateDist::6                  562367      1.84%     74.93% # Number of instructions fetched each cycle (Total)
system.cpu0.fetch.rateDist::7                  898625      2.94%     77.88% # Number of instructions fetched each cycle (Total)
system.cpu0.fetch.rateDist::8                 6755348     22.12%    100.00% # Number of instructions fetched each cycle (Total)
system.cpu0.fetch.rateDist::overflows               0      0.00%    100.00% # Number of instructions fetched each cycle (Total)
system.cpu0.fetch.rateDist::min_value               0                       # Number of instructions fetched each cycle (Total)
system.cpu0.fetch.rateDist::max_value               8                       # Number of instructions fetched each cycle (Total)
system.cpu0.fetch.rateDist::total            30534689                       # Number of instructions fetched each cycle (Total)
system.cpu0.fetch.branchRate                 0.172063                       # Number of branch fetches per cycle
system.cpu0.fetch.rate                       1.522244                       # Number of inst fetches per cycle
system.cpu0.decode.IdleCycles                 4150849                       # Number of cycles decode is idle
system.cpu0.decode.BlockedCycles             15721970                       # Number of cycles decode is blocked
system.cpu0.decode.RunCycles                  6247655                       # Number of cycles decode is running
system.cpu0.decode.UnblockCycles              4304255                       # Number of cycles decode is unblocking
system.cpu0.decode.SquashCycles                109960                       # Number of cycles decode is squashing
system.cpu0.decode.DecodedInsts              77605920                       # Number of instructions handled by decode
system.cpu0.rename.SquashCycles                109960                       # Number of cycles rename is squashing
system.cpu0.rename.IdleCycles                 5849111                       # Number of cycles rename is idle
system.cpu0.rename.BlockCycles                5688713                       # Number of cycles rename is blocking
system.cpu0.rename.serializeStallCycles             0                       # count of cycles rename stalled for serializing inst
system.cpu0.rename.RunCycles                  8796010                       # Number of cycles rename is running
system.cpu0.rename.UnblockCycles             10090895                       # Number of cycles rename is unblocking
system.cpu0.rename.RenamedInsts              77115262                       # Number of instructions processed by rename
system.cpu0.rename.ROBFullEvents               195167                       # Number of times rename has blocked due to ROB full
system.cpu0.rename.IQFullEvents               9026892                       # Number of times rename has blocked due to IQ full
system.cpu0.rename.RenamedOperands           82967129                       # Number of destination operands rename has renamed
system.cpu0.rename.RenameLookups            183164259                       # Number of register rename lookups that rename has made
system.cpu0.rename.int_rename_lookups        60260664                       # Number of integer rename lookups
system.cpu0.rename.fp_rename_lookups         75226505                       # Number of floating rename lookups
system.cpu0.rename.CommittedMaps             70338494                       # Number of HB maps that are committed
system.cpu0.rename.UndoneMaps                12628638                       # Number of HB maps that are undone due to squashing
system.cpu0.rename.serializingInsts                 0                       # count of serializing insts renamed
system.cpu0.rename.tempSerializingInsts             0                       # count of temporary serializing insts renamed
system.cpu0.rename.skidInsts                 23150036                       # count of insts added to the skid buffer
system.cpu0.memDep0.insertedLoads             9518412                       # Number of loads inserted to the mem dependence unit.
system.cpu0.memDep0.insertedStores            2095087                       # Number of stores inserted to the mem dependence unit.
system.cpu0.memDep0.conflictingLoads           424410                       # Number of conflicting loads.
system.cpu0.memDep0.conflictingStores          115530                       # Number of conflicting stores.
system.cpu0.iq.iqInstsAdded                  76434479                       # Number of instructions added to the IQ (excludes non-spec)
system.cpu0.iq.iqInstsIssued                 70704301                       # Number of instructions issued
system.cpu0.iq.iqSquashedInstsExamined       10701811                       # Number of squashed instructions iterated over during squash; mainly for profiling
system.cpu0.iq.iqSquashedOperandsExamined     15417409                       # Number of squashed operands that are examined and possibly removed from graph
system.cpu0.iq.issued_per_cycle::samples     30534689                       # Number of insts issued each cycle
system.cpu0.iq.issued_per_cycle::mean        2.315540                       # Number of insts issued each cycle
system.cpu0.iq.issued_per_cycle::stdev       1.957464                       # Number of insts issued each cycle
system.cpu0.iq.issued_per_cycle::underflows            0      0.00%      0.00% # Number of insts issued each cycle
system.cpu0.iq.issued_per_cycle::0            6361955     20.84%     20.84% # Number of insts issued each cycle
system.cpu0.iq.issued_per_cycle::1            6112250     20.02%     40.85% # Number of insts issued each cycle
system.cpu0.iq.issued_per_cycle::2            5647134     18.49%     59.35% # Number of insts issued each cycle
system.cpu0.iq.issued_per_cycle::3            4855262     15.90%     75.25% # Number of insts issued each cycle
system.cpu0.iq.issued_per_cycle::4            2957297      9.69%     84.93% # Number of insts issued each cycle
system.cpu0.iq.issued_per_cycle::5            1971133      6.46%     91.39% # Number of insts issued each cycle
system.cpu0.iq.issued_per_cycle::6            1638910      5.37%     96.76% # Number of insts issued each cycle
system.cpu0.iq.issued_per_cycle::7             712300      2.33%     99.09% # Number of insts issued each cycle
system.cpu0.iq.issued_per_cycle::8             278448      0.91%    100.00% # Number of insts issued each cycle
system.cpu0.iq.issued_per_cycle::overflows            0      0.00%    100.00% # Number of insts issued each cycle
system.cpu0.iq.issued_per_cycle::min_value            0                       # Number of insts issued each cycle
system.cpu0.iq.issued_per_cycle::max_value            8                       # Number of insts issued each cycle
system.cpu0.iq.issued_per_cycle::total       30534689                       # Number of insts issued each cycle
system.cpu0.iq.fu_full::No_OpClass                  0      0.00%      0.00% # attempts to use FU when none available
system.cpu0.iq.fu_full::IntAlu                     15      0.01%      0.01% # attempts to use FU when none available
system.cpu0.iq.fu_full::IntMult                     0      0.00%      0.01% # attempts to use FU when none available
system.cpu0.iq.fu_full::IntDiv                      0      0.00%      0.01% # attempts to use FU when none available
system.cpu0.iq.fu_full::FloatAdd               106764     99.82%     99.83% # attempts to use FU when none available
system.cpu0.iq.fu_full::FloatCmp                    0      0.00%     99.83% # attempts to use FU when none available
system.cpu0.iq.fu_full::FloatCvt                    0      0.00%     99.83% # attempts to use FU when none available
system.cpu0.iq.fu_full::FloatMult                   0      0.00%     99.83% # attempts to use FU when none available
system.cpu0.iq.fu_full::FloatMultAcc                0      0.00%     99.83% # attempts to use FU when none available
system.cpu0.iq.fu_full::FloatDiv                    0      0.00%     99.83% # attempts to use FU when none available
system.cpu0.iq.fu_full::FloatMisc                   0      0.00%     99.83% # attempts to use FU when none available
system.cpu0.iq.fu_full::FloatSqrt                   0      0.00%     99.83% # attempts to use FU when none available
system.cpu0.iq.fu_full::SimdAdd                     0      0.00%     99.83% # attempts to use FU when none available
system.cpu0.iq.fu_full::SimdAddAcc                  0      0.00%     99.83% # attempts to use FU when none available
system.cpu0.iq.fu_full::SimdAlu                     0      0.00%     99.83% # attempts to use FU when none available
system.cpu0.iq.fu_full::SimdCmp                     0      0.00%     99.83% # attempts to use FU when none available
system.cpu0.iq.fu_full::SimdCvt                     0      0.00%     99.83% # attempts to use FU when none available
system.cpu0.iq.fu_full::SimdMisc                    0      0.00%     99.83% # attempts to use FU when none available
system.cpu0.iq.fu_full::SimdMult                    0      0.00%     99.83% # attempts to use FU when none available
system.cpu0.iq.fu_full::SimdMultAcc                 0      0.00%     99.83% # attempts to use FU when none available
system.cpu0.iq.fu_full::SimdShift                   0      0.00%     99.83% # attempts to use FU when none available
system.cpu0.iq.fu_full::SimdShiftAcc                0      0.00%     99.83% # attempts to use FU when none available
system.cpu0.iq.fu_full::SimdSqrt                    0      0.00%     99.83% # attempts to use FU when none available
system.cpu0.iq.fu_full::SimdFloatAdd                0      0.00%     99.83% # attempts to use FU when none available
system.cpu0.iq.fu_full::SimdFloatAlu                0      0.00%     99.83% # attempts to use FU when none available
system.cpu0.iq.fu_full::SimdFloatCmp                0      0.00%     99.83% # attempts to use FU when none available
system.cpu0.iq.fu_full::SimdFloatCvt                0      0.00%     99.83% # attempts to use FU when none available
system.cpu0.iq.fu_full::SimdFloatDiv                0      0.00%     99.83% # attempts to use FU when none available
system.cpu0.iq.fu_full::SimdFloatMisc               0      0.00%     99.83% # attempts to use FU when none available
system.cpu0.iq.fu_full::SimdFloatMult               0      0.00%     99.83% # attempts to use FU when none available
system.cpu0.iq.fu_full::SimdFloatMultAcc            0      0.00%     99.83% # attempts to use FU when none available
system.cpu0.iq.fu_full::SimdFloatSqrt               0      0.00%     99.83% # attempts to use FU when none available
system.cpu0.iq.fu_full::MemRead                   181      0.17%    100.00% # attempts to use FU when none available
system.cpu0.iq.fu_full::MemWrite                    0      0.00%    100.00% # attempts to use FU when none available
system.cpu0.iq.fu_full::FloatMemRead                0      0.00%    100.00% # attempts to use FU when none available
system.cpu0.iq.fu_full::FloatMemWrite               0      0.00%    100.00% # attempts to use FU when none available
system.cpu0.iq.fu_full::IprAccess                   0      0.00%    100.00% # attempts to use FU when none available
system.cpu0.iq.fu_full::InstPrefetch                0      0.00%    100.00% # attempts to use FU when none available
system.cpu0.iq.FU_type_0::No_OpClass             6188      0.01%      0.01% # Type of FU issued
system.cpu0.iq.FU_type_0::IntAlu             36785183     52.03%     52.04% # Type of FU issued
system.cpu0.iq.FU_type_0::IntMult                   0      0.00%     52.04% # Type of FU issued
system.cpu0.iq.FU_type_0::IntDiv                    0      0.00%     52.04% # Type of FU issued
system.cpu0.iq.FU_type_0::FloatAdd           22927189     32.43%     84.46% # Type of FU issued
system.cpu0.iq.FU_type_0::FloatCmp                  0      0.00%     84.46% # Type of FU issued
system.cpu0.iq.FU_type_0::FloatCvt                  0      0.00%     84.46% # Type of FU issued
system.cpu0.iq.FU_type_0::FloatMult                 0      0.00%     84.46% # Type of FU issued
system.cpu0.iq.FU_type_0::FloatMultAcc              0      0.00%     84.46% # Type of FU issued
system.cpu0.iq.FU_type_0::FloatDiv                  0      0.00%     84.46% # Type of FU issued
system.cpu0.iq.FU_type_0::FloatMisc                 0      0.00%     84.46% # Type of FU issued
system.cpu0.iq.FU_type_0::FloatSqrt                 0      0.00%     84.46% # Type of FU issued
system.cpu0.iq.FU_type_0::SimdAdd                   0      0.00%     84.46% # Type of FU issued
system.cpu0.iq.FU_type_0::SimdAddAcc                0      0.00%     84.46% # Type of FU issued
system.cpu0.iq.FU_type_0::SimdAlu                   0      0.00%     84.46% # Type of FU issued
system.cpu0.iq.FU_type_0::SimdCmp                   0      0.00%     84.46% # Type of FU issued
system.cpu0.iq.FU_type_0::SimdCvt                   0      0.00%     84.46% # Type of FU issued
system.cpu0.iq.FU_type_0::SimdMisc                  0      0.00%     84.46% # Type of FU issued
system.cpu0.iq.FU_type_0::SimdMult                  0      0.00%     84.46% # Type of FU issued
system.cpu0.iq.FU_type_0::SimdMultAcc               0      0.00%     84.46% # Type of FU issued
system.cpu0.iq.FU_type_0::SimdShift                 0      0.00%     84.46% # Type of FU issued
system.cpu0.iq.FU_type_0::SimdShiftAcc              0      0.00%     84.46% # Type of FU issued
system.cpu0.iq.FU_type_0::SimdSqrt                  0      0.00%     84.46% # Type of FU issued
system.cpu0.iq.FU_type_0::SimdFloatAdd              0      0.00%     84.46% # Type of FU issued
system.cpu0.iq.FU_type_0::SimdFloatAlu              0      0.00%     84.46% # Type of FU issued
system.cpu0.iq.FU_type_0::SimdFloatCmp              0      0.00%     84.46% # Type of FU issued
system.cpu0.iq.FU_type_0::SimdFloatCvt              0      0.00%     84.46% # Type of FU issued
system.cpu0.iq.FU_type_0::SimdFloatDiv              0      0.00%     84.46% # Type of FU issued
system.cpu0.iq.FU_type_0::SimdFloatMisc             0      0.00%     84.46% # Type of FU issued
system.cpu0.iq.FU_type_0::SimdFloatMult             0      0.00%     84.46% # Type of FU issued
system.cpu0.iq.FU_type_0::SimdFloatMultAcc            0      0.00%     84.46% # Type of FU issued
system.cpu0.iq.FU_type_0::SimdFloatSqrt             0      0.00%     84.46% # Type of FU issued
system.cpu0.iq.FU_type_0::MemRead             1952855      2.76%     87.22% # Type of FU issued
system.cpu0.iq.FU_type_0::MemWrite            1468048      2.08%     89.30% # Type of FU issued
system.cpu0.iq.FU_type_0::FloatMemRead        6939451      9.81%     99.12% # Type of FU issued
system.cpu0.iq.FU_type_0::FloatMemWrite        625387      0.88%    100.00% # Type of FU issued
system.cpu0.iq.FU_type_0::IprAccess                 0      0.00%    100.00% # Type of FU issued
system.cpu0.iq.FU_type_0::InstPrefetch              0      0.00%    100.00% # Type of FU issued
system.cpu0.iq.FU_type_0::total              70704301                       # Type of FU issued
system.cpu0.iq.rate                          2.315540                       # Inst issue rate
system.cpu0.iq.fu_busy_cnt                     106960                       # FU busy when requested
system.cpu0.iq.fu_busy_rate                  0.001513                       # FU busy rate (busy events/executed inst)
system.cpu0.iq.int_inst_queue_reads          97415739                       # Number of integer instruction queue reads
system.cpu0.iq.int_inst_queue_writes         37535229                       # Number of integer instruction queue writes
system.cpu0.iq.int_inst_queue_wakeup_accesses     33377387                       # Number of integer instruction queue wakeup accesses
system.cpu0.iq.fp_inst_queue_reads           74634514                       # Number of floating instruction queue reads
system.cpu0.iq.fp_inst_queue_writes          49601162                       # Number of floating instruction queue writes
system.cpu0.iq.fp_inst_queue_wakeup_accesses     37121230                       # Number of floating instruction queue wakeup accesses
system.cpu0.iq.vec_inst_queue_reads                 0                       # Number of vector instruction queue reads
system.cpu0.iq.vec_inst_queue_writes                0                       # Number of vector instruction queue writes
system.cpu0.iq.vec_inst_queue_wakeup_accesses            0                       # Number of vector instruction queue wakeup accesses
system.cpu0.iq.int_alu_accesses              33434428                       # Number of integer alu accesses
system.cpu0.iq.fp_alu_accesses               37370645                       # Number of floating point alu accesses
system.cpu0.iq.vec_alu_accesses                     0                       # Number of vector alu accesses
system.cpu0.iew.lsq.thread0.forwLoads          418142                       # Number of loads that had data forwarded from stores
system.cpu0.iew.lsq.thread0.invAddrLoads            0                       # Number of loads ignored due to an invalid address
system.cpu0.iew.lsq.thread0.squashedLoads      1422844                       # Number of loads squashed
system.cpu0.iew.lsq.thread0.ignoredResponses            6                       # Number of memory responses ignored because the instruction is squashed
system.cpu0.iew.lsq.thread0.memOrderViolation          101                       # Number of memory ordering violations
system.cpu0.iew.lsq.thread0.squashedStores         3450                       # Number of stores squashed
system.cpu0.iew.lsq.thread0.invAddrSwpfs            0                       # Number of software prefetches ignored due to an invalid address
system.cpu0.iew.lsq.thread0.blockedLoads            0                       # Number of blocked loads due to partial load-store forwarding
system.cpu0.iew.lsq.thread0.rescheduledLoads            1                       # Number of loads that were rescheduled
system.cpu0.iew.lsq.thread0.cacheBlocked            0                       # Number of times an access to memory failed due to the cache being blocked
system.cpu0.iew.iewIdleCycles                       0                       # Number of cycles IEW is idle
system.cpu0.iew.iewSquashCycles                109960                       # Number of cycles IEW is squashing
system.cpu0.iew.iewBlockCycles                3328732                       # Number of cycles IEW is blocking
system.cpu0.iew.iewUnblockCycles               109914                       # Number of cycles IEW is unblocking
system.cpu0.iew.iewDispatchedInsts           76434479                       # Number of instructions dispatched to IQ
system.cpu0.iew.iewDispSquashedInsts                0                       # Number of squashed instructions skipped by dispatch
system.cpu0.iew.iewDispLoadInsts              9518412                       # Number of dispatched load instructions
system.cpu0.iew.iewDispStoreInsts             2095087                       # Number of dispatched store instructions
system.cpu0.iew.iewDispNonSpecInsts                 0                       # Number of dispatched non-speculative instructions
system.cpu0.iew.iewIQFullEvents                 96684                       # Number of times the IQ has become full, causing a stall
system.cpu0.iew.iewLSQFullEvents                    0                       # Number of times the LSQ has become full, causing a stall
system.cpu0.iew.memOrderViolationEvents           101                       # Number of memory order violations
system.cpu0.iew.predictedTakenIncorrect         56971                       # Number of branches that were predicted taken incorrectly
system.cpu0.iew.predictedNotTakenIncorrect        52894                       # Number of branches that were predicted not taken incorrectly
system.cpu0.iew.branchMispredicts              109865                       # Number of branch mispredicts detected at execute
system.cpu0.iew.iewExecutedInsts             70507089                       # Number of executed instructions
system.cpu0.iew.iewExecLoadInsts              8891193                       # Number of load instructions executed
system.cpu0.iew.iewExecSquashedInsts           197214                       # Number of squashed instructions skipped in execute
system.cpu0.iew.exec_swp                            0                       # number of swp insts executed
system.cpu0.iew.exec_nop                            0                       # number of nop insts executed
system.cpu0.iew.exec_refs                    10984052                       # number of memory reference insts executed
system.cpu0.iew.exec_branches                 4704566                       # Number of branches executed
system.cpu0.iew.exec_stores                   2092859                       # Number of stores executed
system.cpu0.iew.exec_rate                    2.309082                       # Inst execution rate
system.cpu0.iew.wb_sent                      70502670                       # cumulative count of insts sent to commit
system.cpu0.iew.wb_count                     70498617                       # cumulative count of insts written-back
system.cpu0.iew.wb_producers                 52477665                       # num instructions producing a value
system.cpu0.iew.wb_consumers                 92334235                       # num instructions consuming a value
system.cpu0.iew.wb_rate                      2.308804                       # insts written-back per cycle
system.cpu0.iew.wb_fanout                    0.568345                       # average fanout of values written-back
system.cpu0.commit.commitSquashedInsts       10701811                       # The number of squashed insts skipped by commit
system.cpu0.commit.branchMispredicts           109859                       # The number of times a branch was mispredicted
system.cpu0.commit.committed_per_cycle::samples     29165833                       # Number of insts commited each cycle
system.cpu0.commit.committed_per_cycle::mean     2.253757                       # Number of insts commited each cycle
system.cpu0.commit.committed_per_cycle::stdev     2.860931                       # Number of insts commited each cycle
system.cpu0.commit.committed_per_cycle::underflows            0      0.00%      0.00% # Number of insts commited each cycle
system.cpu0.commit.committed_per_cycle::0     10944822     37.53%     37.53% # Number of insts commited each cycle
system.cpu0.commit.committed_per_cycle::1      7515159     25.77%     63.29% # Number of insts commited each cycle
system.cpu0.commit.committed_per_cycle::2      1053199      3.61%     66.90% # Number of insts commited each cycle
system.cpu0.commit.committed_per_cycle::3      2909322      9.98%     76.88% # Number of insts commited each cycle
system.cpu0.commit.committed_per_cycle::4      1141199      3.91%     80.79% # Number of insts commited each cycle
system.cpu0.commit.committed_per_cycle::5       216406      0.74%     81.53% # Number of insts commited each cycle
system.cpu0.commit.committed_per_cycle::6       419977      1.44%     82.97% # Number of insts commited each cycle
system.cpu0.commit.committed_per_cycle::7       509514      1.75%     84.72% # Number of insts commited each cycle
system.cpu0.commit.committed_per_cycle::8      4456235     15.28%    100.00% # Number of insts commited each cycle
system.cpu0.commit.committed_per_cycle::overflows            0      0.00%    100.00% # Number of insts commited each cycle
system.cpu0.commit.committed_per_cycle::min_value            0                       # Number of insts commited each cycle
system.cpu0.commit.committed_per_cycle::max_value            8                       # Number of insts commited each cycle
system.cpu0.commit.committed_per_cycle::total     29165833                       # Number of insts commited each cycle
system.cpu0.commit.committedInsts            37019198                       # Number of instructions committed
system.cpu0.commit.committedOps              65732689                       # Number of ops (including micro ops) committed
system.cpu0.commit.swp_count                        0                       # Number of s/w prefetches committed
system.cpu0.commit.refs                      10187211                       # Number of memory references committed
system.cpu0.commit.loads                      8095572                       # Number of loads committed
system.cpu0.commit.membars                          0                       # Number of memory barriers committed
system.cpu0.commit.branches                   4597285                       # Number of branches committed
system.cpu0.commit.vec_insts                        0                       # Number of committed Vector instructions.
system.cpu0.commit.fp_insts                  33984772                       # Number of committed floating point instructions.
system.cpu0.commit.int_insts                 40812676                       # Number of committed integer instructions.
system.cpu0.commit.function_calls              625374                       # Number of function calls committed.
system.cpu0.commit.op_class_0::No_OpClass         5971      0.01%      0.01% # Class of committed instruction
system.cpu0.commit.op_class_0::IntAlu        34169490     51.98%     51.99% # Class of committed instruction
system.cpu0.commit.op_class_0::IntMult              0      0.00%     51.99% # Class of committed instruction
system.cpu0.commit.op_class_0::IntDiv               0      0.00%     51.99% # Class of committed instruction
system.cpu0.commit.op_class_0::FloatAdd      21370017     32.51%     84.50% # Class of committed instruction
system.cpu0.commit.op_class_0::FloatCmp             0      0.00%     84.50% # Class of committed instruction
system.cpu0.commit.op_class_0::FloatCvt             0      0.00%     84.50% # Class of committed instruction
system.cpu0.commit.op_class_0::FloatMult            0      0.00%     84.50% # Class of committed instruction
system.cpu0.commit.op_class_0::FloatMultAcc            0      0.00%     84.50% # Class of committed instruction
system.cpu0.commit.op_class_0::FloatDiv             0      0.00%     84.50% # Class of committed instruction
system.cpu0.commit.op_class_0::FloatMisc            0      0.00%     84.50% # Class of committed instruction
system.cpu0.commit.op_class_0::FloatSqrt            0      0.00%     84.50% # Class of committed instruction
system.cpu0.commit.op_class_0::SimdAdd              0      0.00%     84.50% # Class of committed instruction
system.cpu0.commit.op_class_0::SimdAddAcc            0      0.00%     84.50% # Class of committed instruction
system.cpu0.commit.op_class_0::SimdAlu              0      0.00%     84.50% # Class of committed instruction
system.cpu0.commit.op_class_0::SimdCmp              0      0.00%     84.50% # Class of committed instruction
system.cpu0.commit.op_class_0::SimdCvt              0      0.00%     84.50% # Class of committed instruction
system.cpu0.commit.op_class_0::SimdMisc             0      0.00%     84.50% # Class of committed instruction
system.cpu0.commit.op_class_0::SimdMult             0      0.00%     84.50% # Class of committed instruction
system.cpu0.commit.op_class_0::SimdMultAcc            0      0.00%     84.50% # Class of committed instruction
system.cpu0.commit.op_class_0::SimdShift            0      0.00%     84.50% # Class of committed instruction
system.cpu0.commit.op_class_0::SimdShiftAcc            0      0.00%     84.50% # Class of committed instruction
system.cpu0.commit.op_class_0::SimdSqrt             0      0.00%     84.50% # Class of committed instruction
system.cpu0.commit.op_class_0::SimdFloatAdd            0      0.00%     84.50% # Class of committed instruction
system.cpu0.commit.op_class_0::SimdFloatAlu            0      0.00%     84.50% # Class of committed instruction
system.cpu0.commit.op_class_0::SimdFloatCmp            0      0.00%     84.50% # Class of committed instruction
system.cpu0.commit.op_class_0::SimdFloatCvt            0      0.00%     84.50% # Class of committed instruction
system.cpu0.commit.op_class_0::SimdFloatDiv            0      0.00%     84.50% # Class of committed instruction
system.cpu0.commit.op_class_0::SimdFloatMisc            0      0.00%     84.50% # Class of committed instruction
system.cpu0.commit.op_class_0::SimdFloatMult            0      0.00%     84.50% # Class of committed instruction
system.cpu0.commit.op_class_0::SimdFloatMultAcc            0      0.00%     84.50% # Class of committed instruction
system.cpu0.commit.op_class_0::SimdFloatSqrt            0      0.00%     84.50% # Class of committed instruction
system.cpu0.commit.op_class_0::MemRead        1943251      2.96%     87.46% # Class of committed instruction
system.cpu0.commit.op_class_0::MemWrite       1466263      2.23%     89.69% # Class of committed instruction
system.cpu0.commit.op_class_0::FloatMemRead      6152321      9.36%     99.05% # Class of committed instruction
system.cpu0.commit.op_class_0::FloatMemWrite       625376      0.95%    100.00% # Class of committed instruction
system.cpu0.commit.op_class_0::IprAccess            0      0.00%    100.00% # Class of committed instruction
system.cpu0.commit.op_class_0::InstPrefetch            0      0.00%    100.00% # Class of committed instruction
system.cpu0.commit.op_class_0::total         65732689                       # Class of committed instruction
system.cpu0.commit.bw_lim_events              4456235                       # number cycles where commit BW limit reached
system.cpu0.rob.rob_reads                   101144098                       # The number of ROB reads
system.cpu0.rob.rob_writes                  154237861                       # The number of ROB writes
system.cpu0.committedInsts                   37019198                       # Number of Instructions Simulated
system.cpu0.committedOps                     65732689                       # Number of Ops (including micro ops) Simulated
system.cpu0.cpi                              0.824834                       # CPI: Cycles Per Instruction
system.cpu0.cpi_total                        0.824834                       # CPI: Total CPI of All Threads
system.cpu0.ipc                              1.212365                       # IPC: Instructions Per Cycle
system.cpu0.ipc_total                        1.212365                       # IPC: Total IPC of All Threads
system.cpu0.int_regfile_reads                56084629                       # number of integer regfile reads
system.cpu0.int_regfile_writes               28552752                       # number of integer regfile writes
system.cpu0.fp_regfile_reads                 64682729                       # number of floating regfile reads
system.cpu0.fp_regfile_writes                33268994                       # number of floating regfile writes
system.cpu0.cc_regfile_reads                 20550635                       # number of cc regfile reads
system.cpu0.cc_regfile_writes                13388330                       # number of cc regfile writes
system.cpu0.misc_regfile_reads               24123147                       # number of misc regfile reads
system.cpu0.dcache.tags.pwrStateResidencyTicks::UNDEFINED  15267344125                       # Cumulative time (in ticks) in various power states
system.cpu0.dcache.tags.replacements            14220                       # number of replacements
system.cpu0.dcache.tags.tagsinuse                1024                       # Cycle average of tags in use
system.cpu0.dcache.tags.total_refs            1076114                       # Total number of references to valid blocks.
system.cpu0.dcache.tags.sampled_refs            14220                       # Sample count of references to valid blocks.
system.cpu0.dcache.tags.avg_refs            75.676090                       # Average number of references to valid blocks.
system.cpu0.dcache.tags.warmup_cycle                0                       # Cycle when the warmup percentage was hit.
system.cpu0.dcache.tags.occ_blocks::cpu0.data         1024                       # Average occupied blocks per requestor
system.cpu0.dcache.tags.occ_percent::cpu0.data            1                       # Average percentage of cache occupancy
system.cpu0.dcache.tags.occ_percent::total            1                       # Average percentage of cache occupancy
system.cpu0.dcache.tags.occ_task_id_blocks::1024         1024                       # Occupied blocks per task id
system.cpu0.dcache.tags.age_task_id_blocks_1024::0           11                       # Occupied blocks per task id
system.cpu0.dcache.tags.age_task_id_blocks_1024::1           83                       # Occupied blocks per task id
system.cpu0.dcache.tags.age_task_id_blocks_1024::2          706                       # Occupied blocks per task id
system.cpu0.dcache.tags.age_task_id_blocks_1024::3            5                       # Occupied blocks per task id
system.cpu0.dcache.tags.age_task_id_blocks_1024::4          219                       # Occupied blocks per task id
system.cpu0.dcache.tags.occ_task_id_percent::1024            1                       # Percentage of cache occupancy per task id
system.cpu0.dcache.tags.tag_accesses         42377776                       # Number of tag accesses
system.cpu0.dcache.tags.data_accesses        42377776                       # Number of data accesses
system.cpu0.dcache.pwrStateResidencyTicks::UNDEFINED  15267344125                       # Cumulative time (in ticks) in various power states
system.cpu0.dcache.ReadReq_hits::cpu0.data      8484951                       # number of ReadReq hits
system.cpu0.dcache.ReadReq_hits::total        8484951                       # number of ReadReq hits
system.cpu0.dcache.WriteReq_hits::cpu0.data      2091638                       # number of WriteReq hits
system.cpu0.dcache.WriteReq_hits::total       2091638                       # number of WriteReq hits
system.cpu0.dcache.demand_hits::cpu0.data     10576589                       # number of demand (read+write) hits
system.cpu0.dcache.demand_hits::total        10576589                       # number of demand (read+write) hits
system.cpu0.dcache.overall_hits::cpu0.data     10576589                       # number of overall hits
system.cpu0.dcache.overall_hits::total       10576589                       # number of overall hits
system.cpu0.dcache.ReadReq_misses::cpu0.data        14300                       # number of ReadReq misses
system.cpu0.dcache.ReadReq_misses::total        14300                       # number of ReadReq misses
system.cpu0.dcache.demand_misses::cpu0.data        14300                       # number of demand (read+write) misses
system.cpu0.dcache.demand_misses::total         14300                       # number of demand (read+write) misses
system.cpu0.dcache.overall_misses::cpu0.data        14300                       # number of overall misses
system.cpu0.dcache.overall_misses::total        14300                       # number of overall misses
system.cpu0.dcache.ReadReq_miss_latency::cpu0.data   1384961000                       # number of ReadReq miss cycles
system.cpu0.dcache.ReadReq_miss_latency::total   1384961000                       # number of ReadReq miss cycles
system.cpu0.dcache.demand_miss_latency::cpu0.data   1384961000                       # number of demand (read+write) miss cycles
system.cpu0.dcache.demand_miss_latency::total   1384961000                       # number of demand (read+write) miss cycles
system.cpu0.dcache.overall_miss_latency::cpu0.data   1384961000                       # number of overall miss cycles
system.cpu0.dcache.overall_miss_latency::total   1384961000                       # number of overall miss cycles
system.cpu0.dcache.ReadReq_accesses::cpu0.data      8499251                       # number of ReadReq accesses(hits+misses)
system.cpu0.dcache.ReadReq_accesses::total      8499251                       # number of ReadReq accesses(hits+misses)
system.cpu0.dcache.WriteReq_accesses::cpu0.data      2091638                       # number of WriteReq accesses(hits+misses)
system.cpu0.dcache.WriteReq_accesses::total      2091638                       # number of WriteReq accesses(hits+misses)
system.cpu0.dcache.demand_accesses::cpu0.data     10590889                       # number of demand (read+write) accesses
system.cpu0.dcache.demand_accesses::total     10590889                       # number of demand (read+write) accesses
system.cpu0.dcache.overall_accesses::cpu0.data     10590889                       # number of overall (read+write) accesses
system.cpu0.dcache.overall_accesses::total     10590889                       # number of overall (read+write) accesses
system.cpu0.dcache.ReadReq_miss_rate::cpu0.data     0.001683                       # miss rate for ReadReq accesses
system.cpu0.dcache.ReadReq_miss_rate::total     0.001683                       # miss rate for ReadReq accesses
system.cpu0.dcache.demand_miss_rate::cpu0.data     0.001350                       # miss rate for demand accesses
system.cpu0.dcache.demand_miss_rate::total     0.001350                       # miss rate for demand accesses
system.cpu0.dcache.overall_miss_rate::cpu0.data     0.001350                       # miss rate for overall accesses
system.cpu0.dcache.overall_miss_rate::total     0.001350                       # miss rate for overall accesses
system.cpu0.dcache.ReadReq_avg_miss_latency::cpu0.data 96850.419580                       # average ReadReq miss latency
system.cpu0.dcache.ReadReq_avg_miss_latency::total 96850.419580                       # average ReadReq miss latency
system.cpu0.dcache.demand_avg_miss_latency::cpu0.data 96850.419580                       # average overall miss latency
system.cpu0.dcache.demand_avg_miss_latency::total 96850.419580                       # average overall miss latency
system.cpu0.dcache.overall_avg_miss_latency::cpu0.data 96850.419580                       # average overall miss latency
system.cpu0.dcache.overall_avg_miss_latency::total 96850.419580                       # average overall miss latency
system.cpu0.dcache.blocked_cycles::no_mshrs            0                       # number of cycles access was blocked
system.cpu0.dcache.blocked_cycles::no_targets            0                       # number of cycles access was blocked
system.cpu0.dcache.blocked::no_mshrs                0                       # number of cycles access was blocked
system.cpu0.dcache.blocked::no_targets              0                       # number of cycles access was blocked
system.cpu0.dcache.avg_blocked_cycles::no_mshrs          nan                       # average number of cycles each access was blocked
system.cpu0.dcache.avg_blocked_cycles::no_targets          nan                       # average number of cycles each access was blocked
system.cpu0.dcache.writebacks::writebacks        13394                       # number of writebacks
system.cpu0.dcache.writebacks::total            13394                       # number of writebacks
system.cpu0.dcache.ReadReq_mshr_hits::cpu0.data           80                       # number of ReadReq MSHR hits
system.cpu0.dcache.ReadReq_mshr_hits::total           80                       # number of ReadReq MSHR hits
system.cpu0.dcache.demand_mshr_hits::cpu0.data           80                       # number of demand (read+write) MSHR hits
system.cpu0.dcache.demand_mshr_hits::total           80                       # number of demand (read+write) MSHR hits
system.cpu0.dcache.overall_mshr_hits::cpu0.data           80                       # number of overall MSHR hits
system.cpu0.dcache.overall_mshr_hits::total           80                       # number of overall MSHR hits
system.cpu0.dcache.ReadReq_mshr_misses::cpu0.data        14220                       # number of ReadReq MSHR misses
system.cpu0.dcache.ReadReq_mshr_misses::total        14220                       # number of ReadReq MSHR misses
system.cpu0.dcache.demand_mshr_misses::cpu0.data        14220                       # number of demand (read+write) MSHR misses
system.cpu0.dcache.demand_mshr_misses::total        14220                       # number of demand (read+write) MSHR misses
system.cpu0.dcache.overall_mshr_misses::cpu0.data        14220                       # number of overall MSHR misses
system.cpu0.dcache.overall_mshr_misses::total        14220                       # number of overall MSHR misses
[...]
system.l2.tags.pwrStateResidencyTicks::UNDEFINED  15267344125                       # Cumulative time (in ticks) in various power states
system.l2.tags.replacements                     14205                       # number of replacements
system.l2.tags.tagsinuse                        49152                       # Cycle average of tags in use
system.l2.tags.total_refs                       14205                       # Total number of references to valid blocks.
system.l2.tags.sampled_refs                     14205                       # Sample count of references to valid blocks.
system.l2.tags.avg_refs                             1                       # Average number of references to valid blocks.
system.l2.tags.warmup_cycle                         0                       # Cycle when the warmup percentage was hit.
system.l2.tags.occ_blocks::cpu0.data            49152                       # Average occupied blocks per requestor
system.l2.tags.occ_percent::cpu0.data               1                       # Average percentage of cache occupancy
system.l2.tags.occ_percent::total                   1                       # Average percentage of cache occupancy
system.l2.tags.occ_task_id_blocks::1024         49152                       # Occupied blocks per task id
system.l2.tags.age_task_id_blocks_1024::0           11                       # Occupied blocks per task id
system.l2.tags.age_task_id_blocks_1024::1           83                       # Occupied blocks per task id
system.l2.tags.age_task_id_blocks_1024::2          839                       # Occupied blocks per task id
system.l2.tags.age_task_id_blocks_1024::3         8372                       # Occupied blocks per task id
system.l2.tags.age_task_id_blocks_1024::4        39847                       # Occupied blocks per task id
system.l2.tags.occ_task_id_percent::1024            1                       # Percentage of cache occupancy per task id
system.l2.tags.tag_accesses                    355485                       # Number of tag accesses
system.l2.tags.data_accesses                   355485                       # Number of data accesses
system.l2.pwrStateResidencyTicks::UNDEFINED  15267344125                       # Cumulative time (in ticks) in various power states
system.l2.WritebackDirty_hits::writebacks        13394                       # number of WritebackDirty hits
system.l2.WritebackDirty_hits::total            13394                       # number of WritebackDirty hits
system.l2.ReadSharedReq_hits::cpu0.data            15                       # number of ReadSharedReq hits
system.l2.ReadSharedReq_hits::total                15                       # number of ReadSharedReq hits
system.l2.demand_hits::cpu0.data                   15                       # number of demand (read+write) hits
system.l2.demand_hits::total                       15                       # number of demand (read+write) hits
system.l2.overall_hits::cpu0.data                  15                       # number of overall hits
system.l2.overall_hits::total                      15                       # number of overall hits
system.l2.ReadSharedReq_misses::cpu0.data        14205                       # number of ReadSharedReq misses
system.l2.ReadSharedReq_misses::total           14205                       # number of ReadSharedReq misses
system.l2.demand_misses::cpu0.data              14205                       # number of demand (read+write) misses
system.l2.demand_misses::total                  14205                       # number of demand (read+write) misses
system.l2.overall_misses::cpu0.data             14205                       # number of overall misses
system.l2.overall_misses::total                 14205                       # number of overall misses
system.l2.ReadSharedReq_miss_latency::cpu0.data   1343261500                       # number of ReadSharedReq miss cycles
system.l2.ReadSharedReq_miss_latency::total   1343261500                       # number of ReadSharedReq miss cycles
system.l2.demand_miss_latency::cpu0.data   1343261500                       # number of demand (read+write) miss cycles
system.l2.demand_miss_latency::total       1343261500                       # number of demand (read+write) miss cycles
system.l2.overall_miss_latency::cpu0.data   1343261500                       # number of overall miss cycles
system.l2.overall_miss_latency::total      1343261500                       # number of overall miss cycles
system.l2.WritebackDirty_accesses::writebacks        13394                       # number of WritebackDirty accesses(hits+misses)
system.l2.WritebackDirty_accesses::total        13394                       # number of WritebackDirty accesses(hits+misses)
system.l2.ReadSharedReq_accesses::cpu0.data        14220                       # number of ReadSharedReq accesses(hits+misses)
system.l2.ReadSharedReq_accesses::total         14220                       # number of ReadSharedReq accesses(hits+misses)
system.l2.demand_accesses::cpu0.data            14220                       # number of demand (read+write) accesses
system.l2.demand_accesses::total                14220                       # number of demand (read+write) accesses
system.l2.overall_accesses::cpu0.data           14220                       # number of overall (read+write) accesses
system.l2.overall_accesses::total               14220                       # number of overall (read+write) accesses
system.l2.ReadSharedReq_miss_rate::cpu0.data     0.998945                       # miss rate for ReadSharedReq accesses
system.l2.ReadSharedReq_miss_rate::total     0.998945                       # miss rate for ReadSharedReq accesses
system.l2.demand_miss_rate::cpu0.data        0.998945                       # miss rate for demand accesses
system.l2.demand_miss_rate::total            0.998945                       # miss rate for demand accesses
system.l2.overall_miss_rate::cpu0.data       0.998945                       # miss rate for overall accesses
system.l2.overall_miss_rate::total           0.998945                       # miss rate for overall accesses
system.l2.ReadSharedReq_avg_miss_latency::cpu0.data 94562.583597                       # average ReadSharedReq miss latency
system.l2.ReadSharedReq_avg_miss_latency::total 94562.583597                       # average ReadSharedReq miss latency
system.l2.demand_avg_miss_latency::cpu0.data 94562.583597                       # average overall miss latency
system.l2.demand_avg_miss_latency::total 94562.583597                       # average overall miss latency
system.l2.overall_avg_miss_latency::cpu0.data 94562.583597                       # average overall miss latency
system.l2.overall_avg_miss_latency::total 94562.583597                       # average overall miss latency
system.l2.blocked_cycles::no_mshrs                  0                       # number of cycles access was blocked
system.l2.blocked_cycles::no_targets                0                       # number of cycles access was blocked
system.l2.blocked::no_mshrs                         0                       # number of cycles access was blocked
system.l2.blocked::no_targets                       0                       # number of cycles access was blocked
system.l2.avg_blocked_cycles::no_mshrs            nan                       # average number of cycles each access was blocked
system.l2.avg_blocked_cycles::no_targets          nan                       # average number of cycles each access was blocked
system.l2.writebacks::writebacks                13450                       # number of writebacks
system.l2.writebacks::total                     13450                       # number of writebacks
system.l2.ReadSharedReq_mshr_misses::cpu0.data        14205                       # number of ReadSharedReq MSHR misses
system.l2.ReadSharedReq_mshr_misses::total        14205                       # number of ReadSharedReq MSHR misses
system.l2.demand_mshr_misses::cpu0.data         14205                       # number of demand (read+write) MSHR misses
system.l2.demand_mshr_misses::total             14205                       # number of demand (read+write) MSHR misses
system.l2.overall_mshr_misses::cpu0.data        14205                       # number of overall MSHR misses
system.l2.overall_mshr_misses::total            14205                       # number of overall MSHR misses
system.l2.ReadSharedReq_mshr_miss_latency::cpu0.data   1201211500                       # number of ReadSharedReq MSHR miss cycles
system.l2.ReadSharedReq_mshr_miss_latency::total   1201211500                       # number of ReadSharedReq MSHR miss cycles
system.l2.demand_mshr_miss_latency::cpu0.data   1201211500                       # number of demand (read+write) MSHR miss cycles
system.l2.demand_mshr_miss_latency::total   1201211500                       # number of demand (read+write) MSHR miss cycles
system.l2.overall_mshr_miss_latency::cpu0.data   1201211500                       # number of overall MSHR miss cycles
system.l2.overall_mshr_miss_latency::total   1201211500                       # number of overall MSHR miss cycles
system.l2.ReadSharedReq_mshr_miss_rate::cpu0.data     0.998945                       # mshr miss rate for ReadSharedReq accesses
system.l2.ReadSharedReq_mshr_miss_rate::total     0.998945                       # mshr miss rate for ReadSharedReq accesses
system.l2.demand_mshr_miss_rate::cpu0.data     0.998945                       # mshr miss rate for demand accesses
system.l2.demand_mshr_miss_rate::total       0.998945                       # mshr miss rate for demand accesses
system.l2.overall_mshr_miss_rate::cpu0.data     0.998945                       # mshr miss rate for overall accesses
system.l2.overall_mshr_miss_rate::total      0.998945                       # mshr miss rate for overall accesses
system.l2.ReadSharedReq_avg_mshr_miss_latency::cpu0.data 84562.583597                       # average ReadSharedReq mshr miss latency
system.l2.ReadSharedReq_avg_mshr_miss_latency::total 84562.583597                       # average ReadSharedReq mshr miss latency
system.l2.demand_avg_mshr_miss_latency::cpu0.data 84562.583597                       # average overall mshr miss latency
system.l2.demand_avg_mshr_miss_latency::total 84562.583597                       # average overall mshr miss latency
system.l2.overall_avg_mshr_miss_latency::cpu0.data 84562.583597                       # average overall mshr miss latency
system.l2.overall_avg_mshr_miss_latency::total 84562.583597                       # average overall mshr miss latency
system.membus.snoop_filter.tot_requests         28410                       # Total number of requests made to the snoop filter.
system.membus.snoop_filter.hit_single_requests        14205                       # Number of requests hitting in the snoop filter with a single holder of the requested data.
system.membus.snoop_filter.hit_multi_requests            0                       # Number of requests hitting in the snoop filter with multiple (>1) holders of the requested data.
system.membus.snoop_filter.tot_snoops               0                       # Total number of snoops made to the snoop filter.
system.membus.snoop_filter.hit_single_snoops            0                       # Number of snoops hitting in the snoop filter with a single holder of the requested data.
system.membus.snoop_filter.hit_multi_snoops            0                       # Number of snoops hitting in the snoop filter with multiple (>1) holders of the requested data.
system.membus.pwrStateResidencyTicks::UNDEFINED  15267344125                       # Cumulative time (in ticks) in various power states
system.membus.trans_dist::ReadResp              14205                       # Transaction distribution
system.membus.trans_dist::WritebackDirty        13450                       # Transaction distribution
system.membus.trans_dist::CleanEvict              755                       # Transaction distribution
system.membus.trans_dist::ReadSharedReq         14205                       # Transaction distribution
system.membus.pkt_count_system.l2.mem_side::system.mem_ctrls.port        42615                       # Packet count per connected master and slave (bytes)
system.membus.pkt_count_system.l2.mem_side::total        42615                       # Packet count per connected master and slave (bytes)
system.membus.pkt_count::total                  42615                       # Packet count per connected master and slave (bytes)
system.membus.pkt_size_system.l2.mem_side::system.mem_ctrls.port      1769920                       # Cumulative packet size per connected master and slave (bytes)
system.membus.pkt_size_system.l2.mem_side::total      1769920                       # Cumulative packet size per connected master and slave (bytes)
system.membus.pkt_size::total                 1769920                       # Cumulative packet size per connected master and slave (bytes)
system.membus.snoops                                0                       # Total snoops (count)
system.membus.snoopTraffic                          0                       # Total snoop traffic (bytes)
system.membus.snoop_fanout::samples             14205                       # Request fanout histogram
system.membus.snoop_fanout::mean                    0                       # Request fanout histogram
system.membus.snoop_fanout::stdev                   0                       # Request fanout histogram
system.membus.snoop_fanout::underflows              0      0.00%      0.00% # Request fanout histogram
system.membus.snoop_fanout::0                   14205    100.00%    100.00% # Request fanout histogram
system.membus.snoop_fanout::1                       0      0.00%    100.00% # Request fanout histogram
system.membus.snoop_fanout::overflows               0      0.00%    100.00% # Request fanout histogram
system.membus.snoop_fanout::min_value               0                       # Request fanout histogram
system.membus.snoop_fanout::max_value               0                       # Request fanout histogram
system.membus.snoop_fanout::total               14205                       # Request fanout histogram
system.membus.reqLayer8.occupancy            85817000                       # Layer occupancy (ticks)
system.membus.reqLayer8.utilization               0.6                       # Layer utilization (%)
system.membus.respLayer1.occupancy           75651000                       # Layer occupancy (ticks)
system.membus.respLayer1.utilization              0.5                       # Layer utilization (%)
system.tol2bus.snoop_filter.tot_requests        28440                       # Total number of requests made to the snoop filter.
system.tol2bus.snoop_filter.hit_single_requests        14220                       # Number of requests hitting in the snoop filter with a single holder of the requested data.
system.tol2bus.snoop_filter.hit_multi_requests            0                       # Number of requests hitting in the snoop filter with multiple (>1) holders of the requested data.
system.tol2bus.snoop_filter.tot_snoops              0                       # Total number of snoops made to the snoop filter.
system.tol2bus.snoop_filter.hit_single_snoops            0                       # Number of snoops hitting in the snoop filter with a single holder of the requested data.
system.tol2bus.snoop_filter.hit_multi_snoops            0                       # Number of snoops hitting in the snoop filter with multiple (>1) holders of the requested data.
system.tol2bus.pwrStateResidencyTicks::UNDEFINED  15267344125                       # Cumulative time (in ticks) in various power states
system.tol2bus.trans_dist::ReadResp             14220                       # Transaction distribution
system.tol2bus.trans_dist::WritebackDirty        26844                       # Transaction distribution
system.tol2bus.trans_dist::CleanEvict            1581                       # Transaction distribution
system.tol2bus.trans_dist::ReadSharedReq        14220                       # Transaction distribution
system.tol2bus.pkt_count_system.cpu0.dcache.mem_side::system.l2.cpu_side        42660                       # Packet count per connected master and slave (bytes)
system.tol2bus.pkt_count::total                 42660                       # Packet count per connected master and slave (bytes)
system.tol2bus.pkt_size_system.cpu0.dcache.mem_side::system.l2.cpu_side      1767296                       # Cumulative packet size per connected master and slave (bytes)
system.tol2bus.pkt_size::total                1767296                       # Cumulative packet size per connected master and slave (bytes)
system.tol2bus.snoops                           14205                       # Total snoops (count)
system.tol2bus.snoopTraffic                    860800                       # Total snoop traffic (bytes)
system.tol2bus.snoop_fanout::samples            28425                       # Request fanout histogram
system.tol2bus.snoop_fanout::mean                   0                       # Request fanout histogram
system.tol2bus.snoop_fanout::stdev                  0                       # Request fanout histogram
system.tol2bus.snoop_fanout::underflows             0      0.00%      0.00% # Request fanout histogram
system.tol2bus.snoop_fanout::0                  28425    100.00%    100.00% # Request fanout histogram
system.tol2bus.snoop_fanout::1                      0      0.00%    100.00% # Request fanout histogram
system.tol2bus.snoop_fanout::2                      0      0.00%    100.00% # Request fanout histogram
system.tol2bus.snoop_fanout::3                      0      0.00%    100.00% # Request fanout histogram
system.tol2bus.snoop_fanout::4                      0      0.00%    100.00% # Request fanout histogram
system.tol2bus.snoop_fanout::5                      0      0.00%    100.00% # Request fanout histogram
system.tol2bus.snoop_fanout::6                      0      0.00%    100.00% # Request fanout histogram
system.tol2bus.snoop_fanout::7                      0      0.00%    100.00% # Request fanout histogram
system.tol2bus.snoop_fanout::8                      0      0.00%    100.00% # Request fanout histogram
system.tol2bus.snoop_fanout::9                      0      0.00%    100.00% # Request fanout histogram
system.tol2bus.snoop_fanout::10                     0      0.00%    100.00% # Request fanout histogram
system.tol2bus.snoop_fanout::11                     0      0.00%    100.00% # Request fanout histogram
system.tol2bus.snoop_fanout::12                     0      0.00%    100.00% # Request fanout histogram
system.tol2bus.snoop_fanout::13                     0      0.00%    100.00% # Request fanout histogram
system.tol2bus.snoop_fanout::14                     0      0.00%    100.00% # Request fanout histogram
system.tol2bus.snoop_fanout::15                     0      0.00%    100.00% # Request fanout histogram
system.tol2bus.snoop_fanout::16                     0      0.00%    100.00% # Request fanout histogram
system.tol2bus.snoop_fanout::overflows              0      0.00%    100.00% # Request fanout histogram
system.tol2bus.snoop_fanout::min_value              0                       # Request fanout histogram
system.tol2bus.snoop_fanout::max_value              0                       # Request fanout histogram
system.tol2bus.snoop_fanout::total              28425                       # Request fanout histogram
system.tol2bus.reqLayer0.occupancy           27614000                       # Layer occupancy (ticks)
system.tol2bus.reqLayer0.utilization              0.2                       # Layer utilization (%)
system.tol2bus.respLayer1.occupancy          21330000                       # Layer occupancy (ticks)
system.tol2bus.respLayer1.utilization             0.1                       # Layer utilization (%)

---------- End Simulation Statistics   ----------
