
---------- Begin Simulation Statistics ----------
sim_seconds                                  0.015267                       # Number of seconds simulated
sim_ticks                                 15267344125                       # Number of ticks simulated
final_tick                               5740521391000                       # Number of ticks from beginning of simulation (restored from checkpoints and never reset)
sim_freq                                 1000000000000                       # Frequency of simulated ticks
host_inst_rate                              118559157                       # Simulator instruction rate (inst/s)
host_op_rate                                220605306                       # Simulator op (including micro ops) rate (op/s)
host_tick_rate                              307073305                       # Simulator tick rate (ticks/s)
host_mem_usage                                2332528                       # Number of bytes of host memory used
host_seconds                                    49.72                       # Real time elapsed on the host
sim_insts                                  5894627586                       # Number of instructions simulated
sim_ops                                   10968249331                       # Number of ops (including micro ops) simulated
system.voltage_domain.voltage                       1                       # Voltage in Volts
system.clk_domain.clock                          1000                       # Clock period in ticks
system.mem_ctrls.pwrStateResidencyTicks::UNDEFINED  15267344125                       # Cumulative time (in ticks) in various power states
system.mem_ctrls.bytes_read::cpu0.inst             64                       # Number of bytes read from this memory
system.mem_ctrls.bytes_read::cpu0.data       11790080                       # Number of bytes read from this memory
system.mem_ctrls.bytes_read::total           11790144                       # Number of bytes read from this memory
system.mem_ctrls.bytes_inst_read::cpu0.inst           64                       # Number of instructions bytes read from this memory
system.mem_ctrls.bytes_inst_read::total            64                       # Number of instructions bytes read from this memory
system.mem_ctrls.bytes_written::writebacks        24576                       # Number of bytes written to this memory
system.mem_ctrls.bytes_written::total           24576                       # Number of bytes written to this memory
system.mem_ctrls.num_reads::cpu0.inst               1                       # Number of read requests responded to by this memory
system.mem_ctrls.num_reads::cpu0.data          184220                       # Number of read requests responded to by this memory
system.mem_ctrls.num_reads::total              184221                       # Number of read requests responded to by this memory
system.mem_ctrls.num_writes::writebacks           384                       # Number of write requests responded to by this memory
system.mem_ctrls.num_writes::total                384                       # Number of write requests responded to by this memory
system.mem_ctrls.bw_read::cpu0.inst              4192                       # Total read bandwidth from this memory (bytes/s)
system.mem_ctrls.bw_read::cpu0.data         772241714                       # Total read bandwidth from this memory (bytes/s)
system.mem_ctrls.bw_read::total             772245906                       # Total read bandwidth from this memory (bytes/s)
system.mem_ctrls.bw_inst_read::cpu0.inst         4192                       # Instruction read bandwidth from this memory (bytes/s)
system.mem_ctrls.bw_inst_read::total             4192                       # Instruction read bandwidth from this memory (bytes/s)
system.mem_ctrls.bw_write::writebacks         1609710                       # Write bandwidth from this memory (bytes/s)
system.mem_ctrls.bw_write::total              1609710                       # Write bandwidth from this memory (bytes/s)
system.mem_ctrls.bw_total::writebacks         1609710                       # Total bandwidth to/from this memory (bytes/s)
system.mem_ctrls.bw_total::cpu0.inst             4192                       # Total bandwidth to/from this memory (bytes/s)
system.mem_ctrls.bw_total::cpu0.data        772241714                       # Total bandwidth to/from this memory (bytes/s)
system.mem_ctrls.bw_total::total            773855616                       # Total bandwidth to/from this memory (bytes/s)
system.mem_ctrls.readReqs                      184221                       # Number of read requests accepted
system.mem_ctrls.writeReqs                        384                       # Number of write requests accepted
system.mem_ctrls.readBursts                    184221                       # Number of DRAM read bursts, including those serviced by the write queue
system.mem_ctrls.writeBursts                      384                       # Number of DRAM write bursts, including those merged in the write queue
system.mem_ctrls.bytesReadDRAM               11786048                       # Total number of bytes read from DRAM
system.mem_ctrls.bytesReadWrQ                    4096                       # Total number of bytes read from write queue
system.mem_ctrls.bytesWritten                   24704                       # Total number of bytes written to DRAM
system.mem_ctrls.bytesReadSys                11790144                       # Total read bytes from the system interface side
system.mem_ctrls.bytesWrittenSys                24576                       # Total written bytes from the system interface side
system.mem_ctrls.servicedByWrQ                     64                       # Number of DRAM read bursts serviced by the write queue
system.mem_ctrls.mergedWrBursts                     0                       # Number of DRAM write bursts merged with an existing one
system.mem_ctrls.neitherReadNorWriteReqs            0                       # Number of requests that are neither read nor write
system.mem_ctrls.perBankRdBursts::0             11325                       # Per bank write bursts
system.mem_ctrls.perBankRdBursts::1             11379                       # Per bank write bursts
system.mem_ctrls.perBankRdBursts::2             11390                       # Per bank write bursts
system.mem_ctrls.perBankRdBursts::3             11912                       # Per bank write bursts
system.mem_ctrls.perBankRdBursts::4             11825                       # Per bank write bursts
system.mem_ctrls.perBankRdBursts::5             11633                       # Per bank write bursts
system.mem_ctrls.perBankRdBursts::6             11704                       # Per bank write bursts
system.mem_ctrls.perBankRdBursts::7             11504                       # Per bank write bursts
system.mem_ctrls.perBankRdBursts::8             11488                       # Per bank write bursts
system.mem_ctrls.perBankRdBursts::9             11395                       # Per bank write bursts
system.mem_ctrls.perBankRdBursts::10            11598                       # Per bank write bursts
system.mem_ctrls.perBankRdBursts::11            11565                       # Per bank write bursts
system.mem_ctrls.perBankRdBursts::12            11524                       # Per bank write bursts
system.mem_ctrls.perBankRdBursts::13            11456                       # Per bank write bursts
system.mem_ctrls.perBankRdBursts::14            11237                       # Per bank write bursts
system.mem_ctrls.perBankRdBursts::15            11222                       # Per bank write bursts
system.mem_ctrls.perBankWrBursts::0                91                       # Per bank write bursts
system.mem_ctrls.perBankWrBursts::1               118                       # Per bank write bursts
system.mem_ctrls.perBankWrBursts::2                43                       # Per bank write bursts
system.mem_ctrls.perBankWrBursts::3                99                       # Per bank write bursts
system.mem_ctrls.perBankWrBursts::4                11                       # Per bank write bursts
system.mem_ctrls.perBankWrBursts::5                24                       # Per bank write bursts
system.mem_ctrls.perBankWrBursts::6                 0                       # Per bank write bursts
system.mem_ctrls.perBankWrBursts::7                 0                       # Per bank write bursts
system.mem_ctrls.perBankWrBursts::8                 0                       # Per bank write bursts
system.mem_ctrls.perBankWrBursts::9                 0                       # Per bank write bursts
system.mem_ctrls.perBankWrBursts::10                0                       # Per bank write bursts
system.mem_ctrls.perBankWrBursts::11                0                       # Per bank write bursts
system.mem_ctrls.perBankWrBursts::12                0                       # Per bank write bursts
system.mem_ctrls.perBankWrBursts::13                0                       # Per bank write bursts
system.mem_ctrls.perBankWrBursts::14                0                       # Per bank write bursts
system.mem_ctrls.perBankWrBursts::15                0                       # Per bank write bursts
system.mem_ctrls.numRdRetry                         0                       # Number of times read queue was full causing retry
system.mem_ctrls.numWrRetry                         0                       # Number of times write queue was full causing retry
system.mem_ctrls.totGap                   15267312000                       # Total gap between requests
system.mem_ctrls.readPktSize::0                     0                       # Read request sizes (log2)
system.mem_ctrls.readPktSize::1                     0                       # Read request sizes (log2)
system.mem_ctrls.readPktSize::2                     0                       # Read request sizes (log2)
system.mem_ctrls.readPktSize::3                     0                       # Read request sizes (log2)
system.mem_ctrls.readPktSize::4                     0                       # Read request sizes (log2)
system.mem_ctrls.readPktSize::5                     0                       # Read request sizes (log2)
system.mem_ctrls.readPktSize::6                184221                       # Read request sizes (log2)
system.mem_ctrls.writePktSize::0                    0                       # Write request sizes (log2)
system.mem_ctrls.writePktSize::1                    0                       # Write request sizes (log2)
system.mem_ctrls.writePktSize::2                    0                       # Write request sizes (log2)
system.mem_ctrls.writePktSize::3                    0                       # Write request sizes (log2)
system.mem_ctrls.writePktSize::4                    0                       # Write request sizes (log2)
system.mem_ctrls.writePktSize::5                    0                       # Write request sizes (log2)
system.mem_ctrls.writePktSize::6                  384                       # Write request sizes (log2)
system.mem_ctrls.rdQLenPdf::0                  140150                       # What read queue length does an incoming req see
system.mem_ctrls.rdQLenPdf::1                   40894                       # What read queue length does an incoming req see
system.mem_ctrls.rdQLenPdf::2                    3022                       # What read queue length does an incoming req see
system.mem_ctrls.rdQLenPdf::3                      91                       # What read queue length does an incoming req see
system.mem_ctrls.rdQLenPdf::4                       0                       # What read queue length does an incoming req see
system.mem_ctrls.rdQLenPdf::5                       0                       # What read queue length does an incoming req see
system.mem_ctrls.rdQLenPdf::6                       0                       # What read queue length does an incoming req see
system.mem_ctrls.rdQLenPdf::7                       0                       # What read queue length does an incoming req see
system.mem_ctrls.rdQLenPdf::8                       0                       # What read queue length does an incoming req see
system.mem_ctrls.rdQLenPdf::9                       0                       # What read queue length does an incoming req see
system.mem_ctrls.rdQLenPdf::10                      0                       # What read queue length does an incoming req see
system.mem_ctrls.rdQLenPdf::11                      0                       # What read queue length does an incoming req see
system.mem_ctrls.rdQLenPdf::12                      0                       # What read queue length does an incoming req see
system.mem_ctrls.rdQLenPdf::13                      0                       # What read queue length does an incoming req see
system.mem_ctrls.rdQLenPdf::14                      0                       # What read queue length does an incoming req see
system.mem_ctrls.rdQLenPdf::15                      0                       # What read queue length does an incoming req see
system.mem_ctrls.rdQLenPdf::16                      0                       # What read queue length does an incoming req see
system.mem_ctrls.rdQLenPdf::17                      0                       # What read queue length does an incoming req see
system.mem_ctrls.rdQLenPdf::18                      0                       # What read queue length does an incoming req see
system.mem_ctrls.rdQLenPdf::19                      0                       # What read queue length does an incoming req see
system.mem_ctrls.rdQLenPdf::20                      0                       # What read queue length does an incoming req see
system.mem_ctrls.rdQLenPdf::21                      0                       # What read queue length does an incoming req see
system.mem_ctrls.rdQLenPdf::22                      0                       # What read queue length does an incoming req see
system.mem_ctrls.rdQLenPdf::23                      0                       # What read queue length does an incoming req see
system.mem_ctrls.rdQLenPdf::24                      0                       # What read queue length does an incoming req see
system.mem_ctrls.rdQLenPdf::25                      0                       # What read queue length does an incoming req see
system.mem_ctrls.rdQLenPdf::26                      0                       # What read queue length does an incoming req see
system.mem_ctrls.rdQLenPdf::27                      0                       # What read queue length does an incoming req see
system.mem_ctrls.rdQLenPdf::28                      0                       # What read queue length does an incoming req see
system.mem_ctrls.rdQLenPdf::29                      0                       # What read queue length does an incoming req see
system.mem_ctrls.rdQLenPdf::30                      0                       # What read queue length does an incoming req see
system.mem_ctrls.rdQLenPdf::31                      0                       # What read queue length does an incoming req see
system.mem_ctrls.wrQLenPdf::0                       0                       # What write queue length does an incoming req see
system.mem_ctrls.wrQLenPdf::1                       0                       # What write queue length does an incoming req see
system.mem_ctrls.wrQLenPdf::2                       0                       # What write queue length does an incoming req see
system.mem_ctrls.wrQLenPdf::3                       0                       # What write queue length does an incoming req see
system.mem_ctrls.wrQLenPdf::4                       0                       # What write queue length does an incoming req see
system.mem_ctrls.wrQLenPdf::5                       0                       # What write queue length does an incoming req see
system.mem_ctrls.wrQLenPdf::6                       0                       # What write queue length does an incoming req see
system.mem_ctrls.wrQLenPdf::7                       0                       # What write queue length does an incoming req see
system.mem_ctrls.wrQLenPdf::8                       0                       # What write queue length does an incoming req see
system.mem_ctrls.wrQLenPdf::9                       0                       # What write queue length does an incoming req see
system.mem_ctrls.wrQLenPdf::10                      0                       # What write queue length does an incoming req see
system.mem_ctrls.wrQLenPdf::11                      0                       # What write queue length does an incoming req see
system.mem_ctrls.wrQLenPdf::12                      0                       # What write queue length does an incoming req see
system.mem_ctrls.wrQLenPdf::13                      0                       # What write queue length does an incoming req see
system.mem_ctrls.wrQLenPdf::14                      0                       # What write queue length does an incoming req see
system.mem_ctrls.wrQLenPdf::15                      1                       # What write queue length does an incoming req see
system.mem_ctrls.wrQLenPdf::16                      1                       # What write queue length does an incoming req see
system.mem_ctrls.wrQLenPdf::17                     24                       # What write queue length does an incoming req see
system.mem_ctrls.wrQLenPdf::18                     24                       # What write queue length does an incoming req see
system.mem_ctrls.wrQLenPdf::19                     24                       # What write queue length does an incoming req see
system.mem_ctrls.wrQLenPdf::20                     24                       # What write queue length does an incoming req see
system.mem_ctrls.wrQLenPdf::21                     24                       # What write queue length does an incoming req see
system.mem_ctrls.wrQLenPdf::22                     24                       # What write queue length does an incoming req see
system.mem_ctrls.wrQLenPdf::23                     24                       # What write queue length does an incoming req see
system.mem_ctrls.wrQLenPdf::24                     24                       # What write queue length does an incoming req see
system.mem_ctrls.wrQLenPdf::25                     24                       # What write queue length does an incoming req see
system.mem_ctrls.wrQLenPdf::26                     24                       # What write queue length does an incoming req see
system.mem_ctrls.wrQLenPdf::27                     24                       # What write queue length does an incoming req see
system.mem_ctrls.wrQLenPdf::28                     23                       # What write queue length does an incoming req see
system.mem_ctrls.wrQLenPdf::29                     23                       # What write queue length does an incoming req see
system.mem_ctrls.wrQLenPdf::30                     24                       # What write queue length does an incoming req see
system.mem_ctrls.wrQLenPdf::31                     24                       # What write queue length does an incoming req see
system.mem_ctrls.wrQLenPdf::32                     24                       # What write queue length does an incoming req see
system.mem_ctrls.wrQLenPdf::33                      0                       # What write queue length does an incoming req see
system.mem_ctrls.wrQLenPdf::34                      0                       # What write queue length does an incoming req see
system.mem_ctrls.wrQLenPdf::35                      0                       # What write queue length does an incoming req see
system.mem_ctrls.wrQLenPdf::36                      0                       # What write queue length does an incoming req see
system.mem_ctrls.wrQLenPdf::37                      0                       # What write queue length does an incoming req see
system.mem_ctrls.wrQLenPdf::38                      0                       # What write queue length does an incoming req see
system.mem_ctrls.wrQLenPdf::39                      0                       # What write queue length does an incoming req see
system.mem_ctrls.wrQLenPdf::40                      0                       # What write queue length does an incoming req see
system.mem_ctrls.wrQLenPdf::41                      0                       # What write queue length does an incoming req see
system.mem_ctrls.wrQLenPdf::42                      0                       # What write queue length does an incoming req see
system.mem_ctrls.wrQLenPdf::43                      0                       # What write queue length does an incoming req see
system.mem_ctrls.wrQLenPdf::44                      0                       # What write queue length does an incoming req see
system.mem_ctrls.wrQLenPdf::45                      0                       # What write queue length does an incoming req see
system.mem_ctrls.wrQLenPdf::46                      0                       # What write queue length does an incoming req see
system.mem_ctrls.wrQLenPdf::47                      0                       # What write queue length does an incoming req see
system.mem_ctrls.wrQLenPdf::48                      0                       # What write queue length does an incoming req see
system.mem_ctrls.wrQLenPdf::49                      0                       # What write queue length does an incoming req see
system.mem_ctrls.wrQLenPdf::50                      0                       # What write queue length does an incoming req see
system.mem_ctrls.wrQLenPdf::51                      0                       # What write queue length does an incoming req see
system.mem_ctrls.wrQLenPdf::52                      0                       # What write queue length does an incoming req see
system.mem_ctrls.wrQLenPdf::53                      0                       # What write queue length does an incoming req see
system.mem_ctrls.wrQLenPdf::54                      0                       # What write queue length does an incoming req see
system.mem_ctrls.wrQLenPdf::55                      0                       # What write queue length does an incoming req see
system.mem_ctrls.wrQLenPdf::56                      0                       # What write queue length does an incoming req see
system.mem_ctrls.wrQLenPdf::57                      0                       # What write queue length does an incoming req see
system.mem_ctrls.wrQLenPdf::58                      0                       # What write queue length does an incoming req see
system.mem_ctrls.wrQLenPdf::59                      0                       # What write queue length does an incoming req see
system.mem_ctrls.wrQLenPdf::60                      0                       # What write queue length does an incoming req see
system.mem_ctrls.wrQLenPdf::61                      0                       # What write queue length does an incoming req see
system.mem_ctrls.wrQLenPdf::62                      0                       # What write queue length does an incoming req see
system.mem_ctrls.wrQLenPdf::63                      0                       # What write queue length does an incoming req see
system.mem_ctrls.bytesPerActivate::samples        97466                       # Bytes accessed per row activation
system.mem_ctrls.bytesPerActivate::mean    121.182115                       # Bytes accessed per row activation
system.mem_ctrls.bytesPerActivate::gmean   104.582609                       # Bytes accessed per row activation
system.mem_ctrls.bytesPerActivate::stdev    72.847994                       # Bytes accessed per row activation
system.mem_ctrls.bytesPerActivate::0-127        46564     47.77%     47.77% # Bytes accessed per row activation
system.mem_ctrls.bytesPerActivate::128-255        41819     42.91%     90.68% # Bytes accessed per row activation
system.mem_ctrls.bytesPerActivate::256-383         7947      8.15%     98.83% # Bytes accessed per row activation
system.mem_ctrls.bytesPerActivate::384-511         1011      1.04%     99.87% # Bytes accessed per row activation
system.mem_ctrls.bytesPerActivate::512-639           98      0.10%     99.97% # Bytes accessed per row activation
system.mem_ctrls.bytesPerActivate::640-767           10      0.01%     99.98% # Bytes accessed per row activation
system.mem_ctrls.bytesPerActivate::768-895            5      0.01%     99.99% # Bytes accessed per row activation
system.mem_ctrls.bytesPerActivate::896-1023            5      0.01%     99.99% # Bytes accessed per row activation
system.mem_ctrls.bytesPerActivate::1024-1151            7      0.01%    100.00% # Bytes accessed per row activation
system.mem_ctrls.bytesPerActivate::total        97466                       # Bytes accessed per row activation
system.mem_ctrls.rdPerTurnAround::samples           24                       # Reads before turning the bus around for writes
system.mem_ctrls.rdPerTurnAround::mean    7435.708333                       # Reads before turning the bus around for writes
system.mem_ctrls.rdPerTurnAround::gmean   7311.972785                       # Reads before turning the bus around for writes
system.mem_ctrls.rdPerTurnAround::stdev   1354.640478                       # Reads before turning the bus around for writes
system.mem_ctrls.rdPerTurnAround::4096-4607            1      4.17%      4.17% # Reads before turning the bus around for writes
system.mem_ctrls.rdPerTurnAround::5120-5631            1      4.17%      8.33% # Reads before turning the bus around for writes
system.mem_ctrls.rdPerTurnAround::5632-6143            2      8.33%     16.67% # Reads before turning the bus around for writes
system.mem_ctrls.rdPerTurnAround::6144-6655            3     12.50%     29.17% # Reads before turning the bus around for writes
system.mem_ctrls.rdPerTurnAround::6656-7167            4     16.67%     45.83% # Reads before turning the bus around for writes
system.mem_ctrls.rdPerTurnAround::7168-7679            3     12.50%     58.33% # Reads before turning the bus around for writes
system.mem_ctrls.rdPerTurnAround::7680-8191            4     16.67%     75.00% # Reads before turning the bus around for writes
system.mem_ctrls.rdPerTurnAround::8192-8703            1      4.17%     79.17% # Reads before turning the bus around for writes
system.mem_ctrls.rdPerTurnAround::8704-9215            3     12.50%     91.67% # Reads before turning the bus around for writes
system.mem_ctrls.rdPerTurnAround::9728-10239            2      8.33%    100.00% # Reads before turning the bus around for writes
system.mem_ctrls.rdPerTurnAround::total            24                       # Reads before turning the bus around for writes
system.mem_ctrls.wrPerTurnAround::samples           24                       # Writes before turning the bus around for reads
system.mem_ctrls.wrPerTurnAround::mean      16.083333                       # Writes before turning the bus around for reads
system.mem_ctrls.wrPerTurnAround::gmean     16.078715                       # Writes before turning the bus around for reads
system.mem_ctrls.wrPerTurnAround::stdev      0.408248                       # Writes before turning the bus around for reads
system.mem_ctrls.wrPerTurnAround::16               23     95.83%     95.83% # Writes before turning the bus around for reads
system.mem_ctrls.wrPerTurnAround::18                1      4.17%    100.00% # Writes before turning the bus around for reads
system.mem_ctrls.wrPerTurnAround::total            24                       # Writes before turning the bus around for reads
system.mem_ctrls.totQLat                   4554101000                       # Total ticks spent queuing
system.mem_ctrls.totMemAccLat              8007044750                       # Total ticks spent from burst creation until serviced by the DRAM
system.mem_ctrls.totBusLat                  920785000                       # Total ticks spent in databus transfers
system.mem_ctrls.avgQLat                     24729.45                       # Average queueing delay per DRAM burst
system.mem_ctrls.avgBusLat                    5000.00                       # Average bus latency per DRAM burst
system.mem_ctrls.avgMemAccLat                43479.45                       # Average memory access latency per DRAM burst
system.mem_ctrls.avgRdBW                       771.98                       # Average DRAM read bandwidth in MiByte/s
system.mem_ctrls.avgWrBW                         1.62                       # Average achieved write bandwidth in MiByte/s
system.mem_ctrls.avgRdBWSys                    772.25                       # Average system read bandwidth in MiByte/s
system.mem_ctrls.avgWrBWSys                      1.61                       # Average system write bandwidth in MiByte/s
system.mem_ctrls.peakBW                      12800.00                       # Theoretical peak bandwidth in MiByte/s
system.mem_ctrls.busUtil                         6.04                       # Data bus utilization in percentage
system.mem_ctrls.busUtilRead                     6.03                       # Data bus utilization in percentage for reads
system.mem_ctrls.busUtilWrite                    0.01                       # Data bus utilization in percentage for writes
system.mem_ctrls.avgRdQLen                       1.30                       # Average read queue length when enqueuing
system.mem_ctrls.avgWrQLen                      25.45                       # Average write queue length when enqueuing
system.mem_ctrls.readRowHits                    86743                       # Number of row buffer hits during reads
system.mem_ctrls.writeRowHits                     332                       # Number of row buffer hits during writes
system.mem_ctrls.readRowHitRate                 47.10                       # Row buffer hit rate for reads
system.mem_ctrls.writeRowHitRate                86.46                       # Row buffer hit rate for writes
system.mem_ctrls.avgGap                      82702.59                       # Average gap between requests
system.mem_ctrls.pageHitRate                    47.18                       # Row buffer hit rate, read and write combined
system.mem_ctrls_0.actEnergy                350659680                       # Energy for activate commands per rank (pJ)
system.mem_ctrls_0.preEnergy                186372450                       # Energy for precharge commands per rank (pJ)
system.mem_ctrls_0.readEnergy               661678080                       # Energy for read commands per rank (pJ)
system.mem_ctrls_0.writeEnergy                2014920                       # Energy for write commands per rank (pJ)
system.mem_ctrls_0.refreshEnergy         1205309040.000000                       # Energy for refresh commands per rank (pJ)
system.mem_ctrls_0.actBackEnergy           1591791690                       # Energy for active background per rank (pJ)
system.mem_ctrls_0.preBackEnergy             24666240                       # Energy for precharge background per rank (pJ)
system.mem_ctrls_0.actPowerDownEnergy      5182243920                       # Energy for active power-down per rank (pJ)
system.mem_ctrls_0.prePowerDownEnergy       133542720                       # Energy for precharge power-down per rank (pJ)
system.mem_ctrls_0.selfRefreshEnergy                0                       # Energy for self refresh per rank (pJ)
system.mem_ctrls_0.totalEnergy             9338278740                       # Total energy per rank (pJ)
system.mem_ctrls_0.averagePower            611.650505                       # Core power per rank (mW)
system.mem_ctrls_0.totalIdleTime          11712858875                       # Total Idle time Per DRAM Rank
system.mem_ctrls_0.memoryStateTime::IDLE      9858000                       # Time in different power states
system.mem_ctrls_0.memoryStateTime::REF     509860000                       # Time in different power states
system.mem_ctrls_0.memoryStateTime::SREF            0                       # Time in different power states
system.mem_ctrls_0.memoryStateTime::PRE_PDN    347784000                       # Time in different power states
system.mem_ctrls_0.memoryStateTime::ACT    3034730000                       # Time in different power states
system.mem_ctrls_0.memoryStateTime::ACT_PDN  11365112125                       # Time in different power states
system.mem_ctrls_1.actEnergy                345261840                       # Energy for activate commands per rank (pJ)
system.mem_ctrls_1.preEnergy                183511020                       # Energy for precharge commands per rank (pJ)
system.mem_ctrls_1.readEnergy               653202900                       # Energy for read commands per rank (pJ)
system.mem_ctrls_1.writeEnergy                      0                       # Energy for write commands per rank (pJ)
system.mem_ctrls_1.refreshEnergy         1205309040.000000                       # Energy for refresh commands per rank (pJ)
system.mem_ctrls_1.actBackEnergy           1569686520                       # Energy for active background per rank (pJ)
system.mem_ctrls_1.preBackEnergy             24785760                       # Energy for precharge background per rank (pJ)
system.mem_ctrls_1.actPowerDownEnergy      5187653790                       # Energy for active power-down per rank (pJ)
system.mem_ctrls_1.prePowerDownEnergy       145534560                       # Energy for precharge power-down per rank (pJ)
system.mem_ctrls_1.selfRefreshEnergy          1769640                       # Energy for self refresh per rank (pJ)
system.mem_ctrls_1.totalEnergy             9316715070                       # Total energy per rank (pJ)
system.mem_ctrls_1.averagePower            610.238100                       # Core power per rank (mW)
system.mem_ctrls_1.totalIdleTime          11760877125                       # Total Idle time Per DRAM Rank
system.mem_ctrls_1.memoryStateTime::IDLE     10212000                       # Time in different power states
system.mem_ctrls_1.memoryStateTime::REF     509866000                       # Time in different power states
system.mem_ctrls_1.memoryStateTime::SREF      5072750                       # Time in different power states
system.mem_ctrls_1.memoryStateTime::PRE_PDN    379196750                       # Time in different power states
system.mem_ctrls_1.memoryStateTime::ACT    2986243750                       # Time in different power states
system.mem_ctrls_1.memoryStateTime::ACT_PDN  11376752875                       # Time in different power states
system.pwrStateResidencyTicks::UNDEFINED  15267344125                       # Cumulative time (in ticks) in various power states
system.cpu0.branchPred.lookups                1912474                       # Number of BP lookups
system.cpu0.branchPred.condPredicted          1912474                       # Number of conditional branches predicted
system.cpu0.branchPred.condIncorrect            76898                       # Number of conditional branches incorrect
system.cpu0.branchPred.BTBLookups             1549193                       # Number of BTB lookups
system.cpu0.branchPred.BTBHits                      0                       # Number of BTB hits
system.cpu0.branchPred.BTBCorrect                   0                       # Number of correct BTB predictions (this stat may not work properly.
system.cpu0.branchPred.BTBHitPct             0.000000                       # BTB Hit Percentage
system.cpu0.branchPred.usedRAS                  46590                       # Number of times the RAS was used to get a target.
system.cpu0.branchPred.RASInCorrect              7050                       # Number of incorrect RAS predictions.
system.cpu0.branchPred.indirectLookups        1549193                       # Number of indirect predictor lookups.
system.cpu0.branchPred.indirectHits            827589                       # Number of indirect target hits.
system.cpu0.branchPred.indirectMisses          721604                       # Number of indirect misses.
system.cpu0.branchPredindirectMispredicted        24200                       # Number of mispredicted indirect branches.
system.cpu_voltage_domain.voltage                   1                       # Voltage in Volts
system.cpu_clk_domain.clock                       500                       # Clock period in ticks
system.cpu0.dtb.walker.pwrStateResidencyTicks::UNDEFINED  15267344125                       # Cumulative time (in ticks) in various power states
system.cpu0.dtb.rdAccesses                     882932                       # TLB accesses on read requests
system.cpu0.dtb.wrAccesses                      51865                       # TLB accesses on write requests
system.cpu0.dtb.rdMisses                       181777                       # TLB misses on read requests
system.cpu0.dtb.wrMisses                         1201                       # TLB misses on write requests
system.cpu0.apic_clk_domain.clock                8000                       # Clock period in ticks
system.cpu0.interrupts.pwrStateResidencyTicks::UNDEFINED  15267344125                       # Cumulative time (in ticks) in various power states
system.cpu0.itb.walker.pwrStateResidencyTicks::UNDEFINED  15267344125                       # Cumulative time (in ticks) in various power states
system.cpu0.itb.rdAccesses                          0                       # TLB accesses on read requests
system.cpu0.itb.wrAccesses                    1609844                       # TLB accesses on write requests
system.cpu0.itb.rdMisses                            0                       # TLB misses on read requests
system.cpu0.itb.wrMisses                         4623                       # TLB misses on write requests
system.cpu0.workload.numSyscalls                    0                       # Number of system calls
system.cpu0.pwrStateResidencyTicks::ON    15267344125                       # Cumulative time (in ticks) in various power states
system.cpu0.numCycles                        30534689                       # number of cpu cycles simulated
system.cpu0.numWorkItemsStarted                     0                       # number of work items this cpu started
system.cpu0.numWorkItemsCompleted                   0                       # number of work items this cpu completed
system.cpu0.fetch.icacheStallCycles           1643502                       # Number of cycles fetch is stalled on an Icache miss
system.cpu0.fetch.Insts                       5485291                       # Number of instructions fetch has processed
system.cpu0.fetch.Branches                    1912474                       # Number of branches that fetch encountered
system.cpu0.fetch.predictedBranches            874179                       # Number of branches that fetch has predicted taken
system.cpu0.fetch.Cycles                     28736147                       # Number of cycles fetch has run and was not squashing or blocked
system.cpu0.fetch.SquashCycles                 156752                       # Number of cycles fetch has spent squashing
system.cpu0.fetch.TlbCycles                      2491                       # Number of cycles fetch has spent waiting for tlb
system.cpu0.fetch.MiscStallCycles                1132                       # Number of cycles fetch has spent waiting on interrupts, or bad addresses, or out of MSHRs
system.cpu0.fetch.PendingTrapStallCycles        38338                       # Number of stall cycles due to pending traps
system.cpu0.fetch.CacheLines                  1605221                       # Number of cache lines fetched
system.cpu0.fetch.IcacheSquashes                 9325                       # Number of outstanding Icache misses that were squashed
system.cpu0.fetch.ItlbSquashes                     11                       # Number of outstanding ITLB misses that were squashed
system.cpu0.fetch.rateDist::samples          30499986                       # Number of instructions fetched each cycle (Total)
system.cpu0.fetch.rateDist::mean             0.361094                       # Number of instructions fetched each cycle (Total)
system.cpu0.fetch.rateDist::stdev            1.505843                       # Number of instructions fetched each cycle (Total)
system.cpu0.fetch.rateDist::underflows              0      0.00%      0.00% # Number of instructions fetched each cycle (Total)
system.cpu0.fetch.rateDist::0                28353344     92.96%     92.96% # Number of instructions fetched each cycle (Total)
system.cpu0.fetch.rateDist::1                   25304      0.08%     93.04% # Number of instructions fetched each cycle (Total)
system.cpu0.fetch.rateDist::2                  805741      2.64%     95.69% # Number of instructions fetched each cycle (Total)
system.cpu0.fetch.rateDist::3                   25968      0.09%     95.77% # Number of instructions fetched each cycle (Total)
system.cpu0.fetch.rateDist::4                  149009      0.49%     96.26% # Number of instructions fetched each cycle (Total)
system.cpu0.fetch.rateDist::5                   69454      0.23%     96.49% # Number of instructions fetched each cycle (Total)
system.cpu0.fetch.rateDist::6                   94885      0.31%     96.80% # Number of instructions fetched each cycle (Total)
system.cpu0.fetch.rateDist::7                   24186      0.08%     96.88% # Number of instructions fetched each cycle (Total)
system.cpu0.fetch.rateDist::8                  952095      3.12%    100.00% # Number of instructions fetched each cycle (Total)
system.cpu0.fetch.rateDist::overflows               0      0.00%    100.00% # Number of instructions fetched each cycle (Total)
system.cpu0.fetch.rateDist::min_value               0                       # Number of instructions fetched each cycle (Total)
system.cpu0.fetch.rateDist::max_value               8                       # Number of instructions fetched each cycle (Total)
system.cpu0.fetch.rateDist::total            30499986                       # Number of instructions fetched each cycle (Total)
system.cpu0.fetch.branchRate                 0.062633                       # Number of branch fetches per cycle
system.cpu0.fetch.rate                       0.179641                       # Number of inst fetches per cycle
system.cpu0.decode.IdleCycles                  811930                       # Number of cycles decode is idle
system.cpu0.decode.BlockedCycles             28200682                       # Number of cycles decode is blocked
system.cpu0.decode.RunCycles                  1046356                       # Number of cycles decode is running
system.cpu0.decode.UnblockCycles               362642                       # Number of cycles decode is unblocking
system.cpu0.decode.SquashCycles                 78376                       # Number of cycles decode is squashing
system.cpu0.decode.DecodedInsts               9074705                       # Number of instructions handled by decode
system.cpu0.rename.SquashCycles                 78376                       # Number of cycles rename is squashing
system.cpu0.rename.IdleCycles                  922831                       # Number of cycles rename is idle
system.cpu0.rename.BlockCycles               26784095                       # Number of cycles rename is blocking
system.cpu0.rename.serializeStallCycles         18143                       # count of cycles rename stalled for serializing inst
system.cpu0.rename.RunCycles                  1210320                       # Number of cycles rename is running
system.cpu0.rename.UnblockCycles              1486221                       # Number of cycles rename is unblocking
system.cpu0.rename.RenamedInsts               8716492                       # Number of instructions processed by rename
system.cpu0.rename.ROBFullEvents                72594                       # Number of times rename has blocked due to ROB full
system.cpu0.rename.IQFullEvents               1190479                       # Number of times rename has blocked due to IQ full
system.cpu0.rename.LQFullEvents                249672                       # Number of times rename has blocked due to LQ full
system.cpu0.rename.SQFullEvents                   677                       # Number of times rename has blocked due to SQ full
system.cpu0.rename.RenamedOperands           10407655                       # Number of destination operands rename has renamed
system.cpu0.rename.RenameLookups             24349809                       # Number of register rename lookups that rename has made
system.cpu0.rename.int_rename_lookups        11344982                       # Number of integer rename lookups
system.cpu0.rename.fp_rename_lookups            37735                       # Number of floating rename lookups
system.cpu0.rename.CommittedMaps              3643049                       # Number of HB maps that are committed
system.cpu0.rename.UndoneMaps                 6764608                       # Number of HB maps that are undone due to squashing
system.cpu0.rename.serializingInsts               303                       # count of serializing insts renamed
system.cpu0.rename.tempSerializingInsts           381                       # count of temporary serializing insts renamed
system.cpu0.rename.skidInsts                  2289723                       # count of insts added to the skid buffer
system.cpu0.memDep0.insertedLoads             1593434                       # Number of loads inserted to the mem dependence unit.
system.cpu0.memDep0.insertedStores              75603                       # Number of stores inserted to the mem dependence unit.
system.cpu0.memDep0.conflictingLoads             3999                       # Number of conflicting loads.
system.cpu0.memDep0.conflictingStores            4205                       # Number of conflicting stores.
system.cpu0.iq.iqInstsAdded                   8290680                       # Number of instructions added to the IQ (excludes non-spec)
system.cpu0.iq.iqNonSpecInstsAdded               4241                       # Number of non-speculative instructions added to the IQ
system.cpu0.iq.iqInstsIssued                  5874477                       # Number of instructions issued
system.cpu0.iq.iqSquashedInstsIssued             6194                       # Number of squashed instructions issued
system.cpu0.iq.iqSquashedInstsExamined        5255011                       # Number of squashed instructions iterated over during squash; mainly for profiling
system.cpu0.iq.iqSquashedOperandsExamined     11186435                       # Number of squashed operands that are examined and possibly removed from graph
system.cpu0.iq.iqSquashedNonSpecRemoved          4241                       # Number of squashed non-spec instructions that were removed
system.cpu0.iq.issued_per_cycle::samples     30499986                       # Number of insts issued each cycle
system.cpu0.iq.issued_per_cycle::mean        0.192606                       # Number of insts issued each cycle
system.cpu0.iq.issued_per_cycle::stdev       0.797491                       # Number of insts issued each cycle
system.cpu0.iq.issued_per_cycle::underflows            0      0.00%      0.00% # Number of insts issued each cycle
system.cpu0.iq.issued_per_cycle::0           28103694     92.14%     92.14% # Number of insts issued each cycle
system.cpu0.iq.issued_per_cycle::1             939012      3.08%     95.22% # Number of insts issued each cycle
system.cpu0.iq.issued_per_cycle::2             503964      1.65%     96.87% # Number of insts issued each cycle
system.cpu0.iq.issued_per_cycle::3             339363      1.11%     97.99% # Number of insts issued each cycle
system.cpu0.iq.issued_per_cycle::4             371174      1.22%     99.20% # Number of insts issued each cycle
system.cpu0.iq.issued_per_cycle::5             105872      0.35%     99.55% # Number of insts issued each cycle
system.cpu0.iq.issued_per_cycle::6              85209      0.28%     99.83% # Number of insts issued each cycle
system.cpu0.iq.issued_per_cycle::7              29446      0.10%     99.93% # Number of insts issued each cycle
system.cpu0.iq.issued_per_cycle::8              22252      0.07%    100.00% # Number of insts issued each cycle
system.cpu0.iq.issued_per_cycle::overflows            0      0.00%    100.00% # Number of insts issued each cycle
system.cpu0.iq.issued_per_cycle::min_value            0                       # Number of insts issued each cycle
system.cpu0.iq.issued_per_cycle::max_value            8                       # Number of insts issued each cycle
system.cpu0.iq.issued_per_cycle::total       30499986                       # Number of insts issued each cycle
system.cpu0.iq.fu_full::No_OpClass                  0      0.00%      0.00% # attempts to use FU when none available
system.cpu0.iq.fu_full::IntAlu                  11397     67.87%     67.87% # attempts to use FU when none available
system.cpu0.iq.fu_full::IntMult                     0      0.00%     67.87% # attempts to use FU when none available
system.cpu0.iq.fu_full::IntDiv                      0      0.00%     67.87% # attempts to use FU when none available
system.cpu0.iq.fu_full::FloatAdd                 1117      6.65%     74.52% # attempts to use FU when none available
system.cpu0.iq.fu_full::FloatCmp                    0      0.00%     74.52% # attempts to use FU when none available
system.cpu0.iq.fu_full::FloatCvt                    0      0.00%     74.52% # attempts to use FU when none available
system.cpu0.iq.fu_full::FloatMult                   0      0.00%     74.52% # attempts to use FU when none available
system.cpu0.iq.fu_full::FloatMultAcc                0      0.00%     74.52% # attempts to use FU when none available
system.cpu0.iq.fu_full::FloatDiv                    0      0.00%     74.52% # attempts to use FU when none available
system.cpu0.iq.fu_full::FloatMisc                   0      0.00%     74.52% # attempts to use FU when none available
system.cpu0.iq.fu_full::FloatSqrt                   0      0.00%     74.52% # attempts to use FU when none available
system.cpu0.iq.fu_full::SimdAdd                     0      0.00%     74.52% # attempts to use FU when none available
system.cpu0.iq.fu_full::SimdAddAcc                  0      0.00%     74.52% # attempts to use FU when none available
system.cpu0.iq.fu_full::SimdAlu                     0      0.00%     74.52% # attempts to use FU when none available
system.cpu0.iq.fu_full::SimdCmp                     0      0.00%     74.52% # attempts to use FU when none available
system.cpu0.iq.fu_full::SimdCvt                     0      0.00%     74.52% # attempts to use FU when none available
system.cpu0.iq.fu_full::SimdMisc                    0      0.00%     74.52% # attempts to use FU when none available
system.cpu0.iq.fu_full::SimdMult                    0      0.00%     74.52% # attempts to use FU when none available
system.cpu0.iq.fu_full::SimdMultAcc                 0      0.00%     74.52% # attempts to use FU when none available
system.cpu0.iq.fu_full::SimdShift                   0      0.00%     74.52% # attempts to use FU when none available
system.cpu0.iq.fu_full::SimdShiftAcc                0      0.00%     74.52% # attempts to use FU when none available
system.cpu0.iq.fu_full::SimdSqrt                    0      0.00%     74.52% # attempts to use FU when none available
system.cpu0.iq.fu_full::SimdFloatAdd                0      0.00%     74.52% # attempts to use FU when none available
system.cpu0.iq.fu_full::SimdFloatAlu                0      0.00%     74.52% # attempts to use FU when none available
system.cpu0.iq.fu_full::SimdFloatCmp                0      0.00%     74.52% # attempts to use FU when none available
system.cpu0.iq.fu_full::SimdFloatCvt                0      0.00%     74.52% # attempts to use FU when none available
system.cpu0.iq.fu_full::SimdFloatDiv                0      0.00%     74.52% # attempts to use FU when none available
system.cpu0.iq.fu_full::SimdFloatMisc               0      0.00%     74.52% # attempts to use FU when none available
system.cpu0.iq.fu_full::SimdFloatMult               0      0.00%     74.52% # attempts to use FU when none available
system.cpu0.iq.fu_full::SimdFloatMultAcc            0      0.00%     74.52% # attempts to use FU when none available
system.cpu0.iq.fu_full::SimdFloatSqrt               0      0.00%     74.52% # attempts to use FU when none available
system.cpu0.iq.fu_full::MemRead                  3831     22.81%     97.33% # attempts to use FU when none available
system.cpu0.iq.fu_full::MemWrite                  298      1.77%     99.11% # attempts to use FU when none available
system.cpu0.iq.fu_full::FloatMemRead               48      0.29%     99.39% # attempts to use FU when none available
system.cpu0.iq.fu_full::FloatMemWrite             102      0.61%    100.00% # attempts to use FU when none available
system.cpu0.iq.fu_full::IprAccess                   0      0.00%    100.00% # attempts to use FU when none available
system.cpu0.iq.fu_full::InstPrefetch                0      0.00%    100.00% # attempts to use FU when none available
system.cpu0.iq.FU_type_0::No_OpClass            17674      0.30%      0.30% # Type of FU issued
system.cpu0.iq.FU_type_0::IntAlu              4851216     82.58%     82.88% # Type of FU issued
system.cpu0.iq.FU_type_0::IntMult                 932      0.02%     82.90% # Type of FU issued
system.cpu0.iq.FU_type_0::IntDiv                 9848      0.17%     83.07% # Type of FU issued
system.cpu0.iq.FU_type_0::FloatAdd              14286      0.24%     83.31% # Type of FU issued
system.cpu0.iq.FU_type_0::FloatCmp                  0      0.00%     83.31% # Type of FU issued
system.cpu0.iq.FU_type_0::FloatCvt                  0      0.00%     83.31% # Type of FU issued
system.cpu0.iq.FU_type_0::FloatMult                 0      0.00%     83.31% # Type of FU issued
system.cpu0.iq.FU_type_0::FloatMultAcc              0      0.00%     83.31% # Type of FU issued
system.cpu0.iq.FU_type_0::FloatDiv                  0      0.00%     83.31% # Type of FU issued
system.cpu0.iq.FU_type_0::FloatMisc                 0      0.00%     83.31% # Type of FU issued
system.cpu0.iq.FU_type_0::FloatSqrt                 0      0.00%     83.31% # Type of FU issued
system.cpu0.iq.FU_type_0::SimdAdd                   0      0.00%     83.31% # Type of FU issued
system.cpu0.iq.FU_type_0::SimdAddAcc                0      0.00%     83.31% # Type of FU issued
system.cpu0.iq.FU_type_0::SimdAlu                   0      0.00%     83.31% # Type of FU issued
system.cpu0.iq.FU_type_0::SimdCmp                   0      0.00%     83.31% # Type of FU issued
system.cpu0.iq.FU_type_0::SimdCvt                   0      0.00%     83.31% # Type of FU issued
system.cpu0.iq.FU_type_0::SimdMisc                  0      0.00%     83.31% # Type of FU issued
system.cpu0.iq.FU_type_0::SimdMult                  0      0.00%     83.31% # Type of FU issued
system.cpu0.iq.FU_type_0::SimdMultAcc               0      0.00%     83.31% # Type of FU issued
system.cpu0.iq.FU_type_0::SimdShift                 0      0.00%     83.31% # Type of FU issued
system.cpu0.iq.FU_type_0::SimdShiftAcc              0      0.00%     83.31% # Type of FU issued
system.cpu0.iq.FU_type_0::SimdSqrt                  0      0.00%     83.31% # Type of FU issued
system.cpu0.iq.FU_type_0::SimdFloatAdd              0      0.00%     83.31% # Type of FU issued
system.cpu0.iq.FU_type_0::SimdFloatAlu              0      0.00%     83.31% # Type of FU issued
system.cpu0.iq.FU_type_0::SimdFloatCmp              0      0.00%     83.31% # Type of FU issued
system.cpu0.iq.FU_type_0::SimdFloatCvt              0      0.00%     83.31% # Type of FU issued
system.cpu0.iq.FU_type_0::SimdFloatDiv              0      0.00%     83.31% # Type of FU issued
system.cpu0.iq.FU_type_0::SimdFloatMisc             0      0.00%     83.31% # Type of FU issued
system.cpu0.iq.FU_type_0::SimdFloatMult             0      0.00%     83.31% # Type of FU issued
system.cpu0.iq.FU_type_0::SimdFloatMultAcc            0      0.00%     83.31% # Type of FU issued
system.cpu0.iq.FU_type_0::SimdFloatSqrt             0      0.00%     83.31% # Type of FU issued
system.cpu0.iq.FU_type_0::MemRead              922515     15.70%     99.01% # Type of FU issued
system.cpu0.iq.FU_type_0::MemWrite              55486      0.94%     99.96% # Type of FU issued
system.cpu0.iq.FU_type_0::FloatMemRead           2107      0.04%     99.99% # Type of FU issued
system.cpu0.iq.FU_type_0::FloatMemWrite           413      0.01%    100.00% # Type of FU issued
system.cpu0.iq.FU_type_0::IprAccess                 0      0.00%    100.00% # Type of FU issued
system.cpu0.iq.FU_type_0::InstPrefetch              0      0.00%    100.00% # Type of FU issued
system.cpu0.iq.FU_type_0::total               5874477                       # Type of FU issued
system.cpu0.iq.rate                          0.192387                       # Inst issue rate
system.cpu0.iq.fu_busy_cnt                      16793                       # FU busy when requested
system.cpu0.iq.fu_busy_rate                  0.002859                       # FU busy rate (busy events/executed inst)
system.cpu0.iq.int_inst_queue_reads          42236664                       # Number of integer instruction queue reads
system.cpu0.iq.int_inst_queue_writes         13517731                       # Number of integer instruction queue writes
system.cpu0.iq.int_inst_queue_wakeup_accesses      5635520                       # Number of integer instruction queue wakeup accesses
system.cpu0.iq.fp_inst_queue_reads              35263                       # Number of floating instruction queue reads
system.cpu0.iq.fp_inst_queue_writes             32204                       # Number of floating instruction queue writes
system.cpu0.iq.fp_inst_queue_wakeup_accesses        15712                       # Number of floating instruction queue wakeup accesses
system.cpu0.iq.vec_inst_queue_reads                 0                       # Number of vector instruction queue reads
system.cpu0.iq.vec_inst_queue_writes                0                       # Number of vector instruction queue writes
system.cpu0.iq.vec_inst_queue_wakeup_accesses            0                       # Number of vector instruction queue wakeup accesses
system.cpu0.iq.int_alu_accesses               5855489                       # Number of integer alu accesses
system.cpu0.iq.fp_alu_accesses                  18107                       # Number of floating point alu accesses
system.cpu0.iq.vec_alu_accesses                     0                       # Number of vector alu accesses
system.cpu0.iew.lsq.thread0.forwLoads            4582                       # Number of loads that had data forwarded from stores
system.cpu0.iew.lsq.thread0.invAddrLoads            0                       # Number of loads ignored due to an invalid address
system.cpu0.iew.lsq.thread0.squashedLoads      1014598                       # Number of loads squashed
system.cpu0.iew.lsq.thread0.ignoredResponses          157                       # Number of memory responses ignored because the instruction is squashed
system.cpu0.iew.lsq.thread0.memOrderViolation            3                       # Number of memory ordering violations
system.cpu0.iew.lsq.thread0.squashedStores        47025                       # Number of stores squashed
system.cpu0.iew.lsq.thread0.invAddrSwpfs            0                       # Number of software prefetches ignored due to an invalid address
system.cpu0.iew.lsq.thread0.blockedLoads            0                       # Number of blocked loads due to partial load-store forwarding
system.cpu0.iew.lsq.thread0.rescheduledLoads           30                       # Number of loads that were rescheduled
system.cpu0.iew.lsq.thread0.cacheBlocked         1987                       # Number of times an access to memory failed due to the cache being blocked
system.cpu0.iew.iewIdleCycles                       0                       # Number of cycles IEW is idle
system.cpu0.iew.iewSquashCycles                 78376                       # Number of cycles IEW is squashing
system.cpu0.iew.iewBlockCycles               24828359                       # Number of cycles IEW is blocking
system.cpu0.iew.iewUnblockCycles               288935                       # Number of cycles IEW is unblocking
system.cpu0.iew.iewDispatchedInsts            8294921                       # Number of instructions dispatched to IQ
system.cpu0.iew.iewDispSquashedInsts             4719                       # Number of squashed instructions skipped by dispatch
system.cpu0.iew.iewDispLoadInsts              1593434                       # Number of dispatched load instructions
system.cpu0.iew.iewDispStoreInsts               75603                       # Number of dispatched store instructions
system.cpu0.iew.iewDispNonSpecInsts              1589                       # Number of dispatched non-speculative instructions
system.cpu0.iew.iewIQFullEvents                 21344                       # Number of times the IQ has become full, causing a stall
system.cpu0.iew.iewLSQFullEvents                58634                       # Number of times the LSQ has become full, causing a stall
system.cpu0.iew.memOrderViolationEvents             3                       # Number of memory order violations
system.cpu0.iew.predictedTakenIncorrect         43146                       # Number of branches that were predicted taken incorrectly
system.cpu0.iew.predictedNotTakenIncorrect        42749                       # Number of branches that were predicted not taken incorrectly
system.cpu0.iew.branchMispredicts               85895                       # Number of branch mispredicts detected at execute
system.cpu0.iew.iewExecutedInsts              5770861                       # Number of executed instructions
system.cpu0.iew.iewExecLoadInsts               882672                       # Number of load instructions executed
system.cpu0.iew.iewExecSquashedInsts           103616                       # Number of squashed instructions skipped in execute
system.cpu0.iew.exec_swp                            0                       # number of swp insts executed
system.cpu0.iew.exec_nop                            0                       # number of nop insts executed
system.cpu0.iew.exec_refs                      934520                       # number of memory reference insts executed
system.cpu0.iew.exec_branches                  688974                       # Number of branches executed
system.cpu0.iew.exec_stores                     51848                       # Number of stores executed
system.cpu0.iew.exec_rate                    0.188994                       # Inst execution rate
system.cpu0.iew.wb_sent                       5669226                       # cumulative count of insts sent to commit
system.cpu0.iew.wb_count                      5651232                       # cumulative count of insts written-back
system.cpu0.iew.wb_producers                  4214598                       # num instructions producing a value
system.cpu0.iew.wb_consumers                  6603703                       # num instructions consuming a value
system.cpu0.iew.wb_rate                      0.185076                       # insts written-back per cycle
system.cpu0.iew.wb_fanout                    0.638217                       # average fanout of values written-back
system.cpu0.commit.commitSquashedInsts        5255741                       # The number of squashed insts skipped by commit
system.cpu0.commit.branchMispredicts            78373                       # The number of times a branch was mispredicted
system.cpu0.commit.committed_per_cycle::samples     29763211                       # Number of insts commited each cycle
system.cpu0.commit.committed_per_cycle::mean     0.102137                       # Number of insts commited each cycle
system.cpu0.commit.committed_per_cycle::stdev     0.592023                       # Number of insts commited each cycle
system.cpu0.commit.committed_per_cycle::underflows            0      0.00%      0.00% # Number of insts commited each cycle
system.cpu0.commit.committed_per_cycle::0     28454720     95.60%     95.60% # Number of insts commited each cycle
system.cpu0.commit.committed_per_cycle::1       604434      2.03%     97.63% # Number of insts commited each cycle
system.cpu0.commit.committed_per_cycle::2       139551      0.47%     98.10% # Number of insts commited each cycle
system.cpu0.commit.committed_per_cycle::3       385782      1.30%     99.40% # Number of insts commited each cycle
system.cpu0.commit.committed_per_cycle::4        72818      0.24%     99.64% # Number of insts commited each cycle
system.cpu0.commit.committed_per_cycle::5        40578      0.14%     99.78% # Number of insts commited each cycle
system.cpu0.commit.committed_per_cycle::6         6684      0.02%     99.80% # Number of insts commited each cycle
system.cpu0.commit.committed_per_cycle::7         4388      0.01%     99.82% # Number of insts commited each cycle
system.cpu0.commit.committed_per_cycle::8        54256      0.18%    100.00% # Number of insts commited each cycle
system.cpu0.commit.committed_per_cycle::overflows            0      0.00%    100.00% # Number of insts commited each cycle
system.cpu0.commit.committed_per_cycle::min_value            0                       # Number of insts commited each cycle
system.cpu0.commit.committed_per_cycle::max_value            8                       # Number of insts commited each cycle
system.cpu0.commit.committed_per_cycle::total     29763211                       # Number of insts commited each cycle
system.cpu0.commit.committedInsts             1521004                       # Number of instructions committed
system.cpu0.commit.committedOps               3039912                       # Number of ops (including micro ops) committed
system.cpu0.commit.swp_count                        0                       # Number of s/w prefetches committed
system.cpu0.commit.refs                        607415                       # Number of memory references committed
system.cpu0.commit.loads                       578837                       # Number of loads committed
system.cpu0.commit.membars                          0                       # Number of memory barriers committed
system.cpu0.commit.branches                    550449                       # Number of branches committed
system.cpu0.commit.vec_insts                        0                       # Number of committed Vector instructions.
system.cpu0.commit.fp_insts                     11402                       # Number of committed floating point instructions.
system.cpu0.commit.int_insts                  3028378                       # Number of committed integer instructions.
system.cpu0.commit.function_calls                5050                       # Number of function calls committed.
system.cpu0.commit.op_class_0::No_OpClass         3424      0.11%      0.11% # Class of committed instruction
system.cpu0.commit.op_class_0::IntAlu         2410873     79.31%     79.42% # Class of committed instruction
system.cpu0.commit.op_class_0::IntMult            202      0.01%     79.43% # Class of committed instruction
system.cpu0.commit.op_class_0::IntDiv            8242      0.27%     79.70% # Class of committed instruction
system.cpu0.commit.op_class_0::FloatAdd          9756      0.32%     80.02% # Class of committed instruction
system.cpu0.commit.op_class_0::FloatCmp             0      0.00%     80.02% # Class of committed instruction
system.cpu0.commit.op_class_0::FloatCvt             0      0.00%     80.02% # Class of committed instruction
system.cpu0.commit.op_class_0::FloatMult            0      0.00%     80.02% # Class of committed instruction
system.cpu0.commit.op_class_0::FloatMultAcc            0      0.00%     80.02% # Class of committed instruction
system.cpu0.commit.op_class_0::FloatDiv             0      0.00%     80.02% # Class of committed instruction
system.cpu0.commit.op_class_0::FloatMisc            0      0.00%     80.02% # Class of committed instruction
system.cpu0.commit.op_class_0::FloatSqrt            0      0.00%     80.02% # Class of committed instruction
system.cpu0.commit.op_class_0::SimdAdd              0      0.00%     80.02% # Class of committed instruction
system.cpu0.commit.op_class_0::SimdAddAcc            0      0.00%     80.02% # Class of committed instruction
system.cpu0.commit.op_class_0::SimdAlu              0      0.00%     80.02% # Class of committed instruction
system.cpu0.commit.op_class_0::SimdCmp              0      0.00%     80.02% # Class of committed instruction
system.cpu0.commit.op_class_0::SimdCvt              0      0.00%     80.02% # Class of committed instruction
system.cpu0.commit.op_class_0::SimdMisc             0      0.00%     80.02% # Class of committed instruction
system.cpu0.commit.op_class_0::SimdMult             0      0.00%     80.02% # Class of committed instruction
system.cpu0.commit.op_class_0::SimdMultAcc            0      0.00%     80.02% # Class of committed instruction
system.cpu0.commit.op_class_0::SimdShift            0      0.00%     80.02% # Class of committed instruction
system.cpu0.commit.op_class_0::SimdShiftAcc            0      0.00%     80.02% # Class of committed instruction
system.cpu0.commit.op_class_0::SimdSqrt             0      0.00%     80.02% # Class of committed instruction
system.cpu0.commit.op_class_0::SimdFloatAdd            0      0.00%     80.02% # Class of committed instruction
system.cpu0.commit.op_class_0::SimdFloatAlu            0      0.00%     80.02% # Class of committed instruction
system.cpu0.commit.op_class_0::SimdFloatCmp            0      0.00%     80.02% # Class of committed instruction
system.cpu0.commit.op_class_0::SimdFloatCvt            0      0.00%     80.02% # Class of committed instruction
system.cpu0.commit.op_class_0::SimdFloatDiv            0      0.00%     80.02% # Class of committed instruction
system.cpu0.commit.op_class_0::SimdFloatMisc            0      0.00%     80.02% # Class of committed instruction
system.cpu0.commit.op_class_0::SimdFloatMult            0      0.00%     80.02% # Class of committed instruction
system.cpu0.commit.op_class_0::SimdFloatMultAcc            0      0.00%     80.02% # Class of committed instruction
system.cpu0.commit.op_class_0::SimdFloatSqrt            0      0.00%     80.02% # Class of committed instruction
system.cpu0.commit.op_class_0::MemRead         577191     18.99%     99.01% # Class of committed instruction
system.cpu0.commit.op_class_0::MemWrite         28578      0.94%     99.95% # Class of committed instruction
system.cpu0.commit.op_class_0::FloatMemRead         1646      0.05%    100.00% # Class of committed instruction
system.cpu0.commit.op_class_0::FloatMemWrite            0      0.00%    100.00% # Class of committed instruction
system.cpu0.commit.op_class_0::IprAccess            0      0.00%    100.00% # Class of committed instruction
system.cpu0.commit.op_class_0::InstPrefetch            0      0.00%    100.00% # Class of committed instruction
system.cpu0.commit.op_class_0::total          3039912                       # Class of committed instruction
system.cpu0.commit.bw_lim_events                54256                       # number cycles where commit BW limit reached
system.cpu0.rob.rob_reads                    38004608                       # The number of ROB reads
system.cpu0.rob.rob_writes                   17329768                       # The number of ROB writes
system.cpu0.timesIdled                            298                       # Number of times that the entire CPU went into an idle state and unscheduled itself
system.cpu0.idleCycles                          34703                       # Total number of cycles that the CPU has spent unscheduled due to idling
system.cpu0.committedInsts                    1521004                       # Number of Instructions Simulated
system.cpu0.committedOps                      3039912                       # Number of Ops (including micro ops) Simulated
system.cpu0.cpi                             20.075351                       # CPI: Cycles Per Instruction
system.cpu0.cpi_total                       20.075351                       # CPI: Total CPI of All Threads
system.cpu0.ipc                              0.049812                       # IPC: Instructions Per Cycle
system.cpu0.ipc_total                        0.049812                       # IPC: Total IPC of All Threads
system.cpu0.int_regfile_reads                 5640768                       # number of integer regfile reads
system.cpu0.int_regfile_writes                4917074                       # number of integer regfile writes
system.cpu0.fp_regfile_reads                    27847                       # number of floating regfile reads
system.cpu0.fp_regfile_writes                   13757                       # number of floating regfile writes
system.cpu0.cc_regfile_reads                  3634737                       # number of cc regfile reads
system.cpu0.cc_regfile_writes                 1538559                       # number of cc regfile writes
system.cpu0.misc_regfile_reads                3066005                       # number of misc regfile reads
system.cpu0.dcache.tags.pwrStateResidencyTicks::UNDEFINED  15267344125                       # Cumulative time (in ticks) in various power states
system.cpu0.dcache.tags.replacements           302765                       # number of replacements
system.cpu0.dcache.tags.tagsinuse                1024                       # Cycle average of tags in use
system.cpu0.dcache.tags.total_refs             370229                       # Total number of references to valid blocks.
system.cpu0.dcache.tags.sampled_refs           302765                       # Sample count of references to valid blocks.
system.cpu0.dcache.tags.avg_refs             1.222826                       # Average number of references to valid blocks.
system.cpu0.dcache.tags.warmup_cycle                0                       # Cycle when the warmup percentage was hit.
system.cpu0.dcache.tags.occ_blocks::cpu0.data         1024                       # Average occupied blocks per requestor
system.cpu0.dcache.tags.occ_percent::cpu0.data            1                       # Average percentage of cache occupancy
system.cpu0.dcache.tags.occ_percent::total            1                       # Average percentage of cache occupancy
system.cpu0.dcache.tags.occ_task_id_blocks::1024         1024                       # Occupied blocks per task id
system.cpu0.dcache.tags.age_task_id_blocks_1024::0          216                       # Occupied blocks per task id
system.cpu0.dcache.tags.age_task_id_blocks_1024::1          791                       # Occupied blocks per task id
system.cpu0.dcache.tags.age_task_id_blocks_1024::2           17                       # Occupied blocks per task id
system.cpu0.dcache.tags.occ_task_id_percent::1024            1                       # Percentage of cache occupancy per task id
system.cpu0.dcache.tags.tag_accesses          3908889                       # Number of tag accesses
system.cpu0.dcache.tags.data_accesses         3908889                       # Number of data accesses
system.cpu0.dcache.pwrStateResidencyTicks::UNDEFINED  15267344125                       # Cumulative time (in ticks) in various power states
system.cpu0.dcache.ReadReq_hits::cpu0.data       341810                       # number of ReadReq hits
system.cpu0.dcache.ReadReq_hits::total         341810                       # number of ReadReq hits
system.cpu0.dcache.WriteReq_hits::cpu0.data        27483                       # number of WriteReq hits
system.cpu0.dcache.WriteReq_hits::total         27483                       # number of WriteReq hits
system.cpu0.dcache.demand_hits::cpu0.data       369293                       # number of demand (read+write) hits
system.cpu0.dcache.demand_hits::total          369293                       # number of demand (read+write) hits
system.cpu0.dcache.overall_hits::cpu0.data       369293                       # number of overall hits
system.cpu0.dcache.overall_hits::total         369293                       # number of overall hits
system.cpu0.dcache.ReadReq_misses::cpu0.data       531143                       # number of ReadReq misses
system.cpu0.dcache.ReadReq_misses::total       531143                       # number of ReadReq misses
system.cpu0.dcache.WriteReq_misses::cpu0.data         1095                       # number of WriteReq misses
system.cpu0.dcache.WriteReq_misses::total         1095                       # number of WriteReq misses
system.cpu0.dcache.demand_misses::cpu0.data       532238                       # number of demand (read+write) misses
system.cpu0.dcache.demand_misses::total        532238                       # number of demand (read+write) misses
system.cpu0.dcache.overall_misses::cpu0.data       532238                       # number of overall misses
system.cpu0.dcache.overall_misses::total       532238                       # number of overall misses
system.cpu0.dcache.ReadReq_miss_latency::cpu0.data  34672209500                       # number of ReadReq miss cycles
system.cpu0.dcache.ReadReq_miss_latency::total  34672209500                       # number of ReadReq miss cycles
system.cpu0.dcache.WriteReq_miss_latency::cpu0.data     39532998                       # number of WriteReq miss cycles
system.cpu0.dcache.WriteReq_miss_latency::total     39532998                       # number of WriteReq miss cycles
system.cpu0.dcache.demand_miss_latency::cpu0.data  34711742498                       # number of demand (read+write) miss cycles
system.cpu0.dcache.demand_miss_latency::total  34711742498                       # number of demand (read+write) miss cycles
system.cpu0.dcache.overall_miss_latency::cpu0.data  34711742498                       # number of overall miss cycles
system.cpu0.dcache.overall_miss_latency::total  34711742498                       # number of overall miss cycles
system.cpu0.dcache.ReadReq_accesses::cpu0.data       872953                       # number of ReadReq accesses(hits+misses)
system.cpu0.dcache.ReadReq_accesses::total       872953                       # number of ReadReq accesses(hits+misses)
system.cpu0.dcache.WriteReq_accesses::cpu0.data        28578                       # number of WriteReq accesses(hits+misses)
system.cpu0.dcache.WriteReq_accesses::total        28578                       # number of WriteReq accesses(hits+misses)
system.cpu0.dcache.demand_accesses::cpu0.data       901531                       # number of demand (read+write) accesses
system.cpu0.dcache.demand_accesses::total       901531                       # number of demand (read+write) accesses
system.cpu0.dcache.overall_accesses::cpu0.data       901531                       # number of overall (read+write) accesses
system.cpu0.dcache.overall_accesses::total       901531                       # number of overall (read+write) accesses
system.cpu0.dcache.ReadReq_miss_rate::cpu0.data     0.608444                       # miss rate for ReadReq accesses
system.cpu0.dcache.ReadReq_miss_rate::total     0.608444                       # miss rate for ReadReq accesses
system.cpu0.dcache.WriteReq_miss_rate::cpu0.data     0.038316                       # miss rate for WriteReq accesses
system.cpu0.dcache.WriteReq_miss_rate::total     0.038316                       # miss rate for WriteReq accesses
system.cpu0.dcache.demand_miss_rate::cpu0.data     0.590371                       # miss rate for demand accesses
system.cpu0.dcache.demand_miss_rate::total     0.590371                       # miss rate for demand accesses
[...]
system.l2.ReadExReq_miss_rate::cpu0.data     0.252747                       # miss rate for ReadExReq accesses
system.l2.ReadExReq_miss_rate::total         0.252747                       # miss rate for ReadExReq accesses
system.l2.ReadCleanReq_miss_rate::cpu0.inst            1                       # miss rate for ReadCleanReq accesses
system.l2.ReadCleanReq_miss_rate::total             1                       # miss rate for ReadCleanReq accesses
system.l2.ReadSharedReq_miss_rate::cpu0.data     0.609746                       # miss rate for ReadSharedReq accesses
system.l2.ReadSharedReq_miss_rate::total     0.609746                       # miss rate for ReadSharedReq accesses
system.l2.demand_miss_rate::cpu0.inst               1                       # miss rate for demand accesses
system.l2.demand_miss_rate::cpu0.data        0.608459                       # miss rate for demand accesses
system.l2.demand_miss_rate::total            0.608460                       # miss rate for demand accesses
system.l2.overall_miss_rate::cpu0.inst              1                       # miss rate for overall accesses
system.l2.overall_miss_rate::cpu0.data       0.608459                       # miss rate for overall accesses
system.l2.overall_miss_rate::total           0.608460                       # miss rate for overall accesses
system.l2.ReadExReq_avg_miss_latency::cpu0.data 99820.652174                       # average ReadExReq miss latency
system.l2.ReadExReq_avg_miss_latency::total 99820.652174                       # average ReadExReq miss latency
system.l2.ReadCleanReq_avg_miss_latency::cpu0.inst       103500                       # average ReadCleanReq miss latency
system.l2.ReadCleanReq_avg_miss_latency::total       103500                       # average ReadCleanReq miss latency
system.l2.ReadSharedReq_avg_miss_latency::cpu0.data 95037.908276                       # average ReadSharedReq miss latency
system.l2.ReadSharedReq_avg_miss_latency::total 95037.908276                       # average ReadSharedReq miss latency
system.l2.demand_avg_miss_latency::cpu0.inst       103500                       # average overall miss latency
system.l2.demand_avg_miss_latency::cpu0.data 95045.073825                       # average overall miss latency
system.l2.demand_avg_miss_latency::total 95045.119720                       # average overall miss latency
system.l2.overall_avg_miss_latency::cpu0.inst       103500                       # average overall miss latency
system.l2.overall_avg_miss_latency::cpu0.data 95045.073825                       # average overall miss latency
system.l2.overall_avg_miss_latency::total 95045.119720                       # average overall miss latency
system.l2.blocked_cycles::no_mshrs                  0                       # number of cycles access was blocked
system.l2.blocked_cycles::no_targets                0                       # number of cycles access was blocked
system.l2.blocked::no_mshrs                         0                       # number of cycles access was blocked
system.l2.blocked::no_targets                       0                       # number of cycles access was blocked
system.l2.avg_blocked_cycles::no_mshrs            nan                       # average number of cycles each access was blocked
system.l2.avg_blocked_cycles::no_targets          nan                       # average number of cycles each access was blocked
system.l2.writebacks::writebacks                  384                       # number of writebacks
system.l2.writebacks::total                       384                       # number of writebacks
system.l2.ReadExReq_mshr_misses::cpu0.data          276                       # number of ReadExReq MSHR misses
system.l2.ReadExReq_mshr_misses::total            276                       # number of ReadExReq MSHR misses
system.l2.ReadCleanReq_mshr_misses::cpu0.inst            1                       # number of ReadCleanReq MSHR misses
system.l2.ReadCleanReq_mshr_misses::total            1                       # number of ReadCleanReq MSHR misses
system.l2.ReadSharedReq_mshr_misses::cpu0.data       183944                       # number of ReadSharedReq MSHR misses
system.l2.ReadSharedReq_mshr_misses::total       183944                       # number of ReadSharedReq MSHR misses
system.l2.demand_mshr_misses::cpu0.inst             1                       # number of demand (read+write) MSHR misses
system.l2.demand_mshr_misses::cpu0.data        184220                       # number of demand (read+write) MSHR misses
system.l2.demand_mshr_misses::total            184221                       # number of demand (read+write) MSHR misses
system.l2.overall_mshr_misses::cpu0.inst            1                       # number of overall MSHR misses
system.l2.overall_mshr_misses::cpu0.data       184220                       # number of overall MSHR misses
system.l2.overall_mshr_misses::total           184221                       # number of overall MSHR misses
system.l2.ReadExReq_mshr_miss_latency::cpu0.data     24790500                       # number of ReadExReq MSHR miss cycles
system.l2.ReadExReq_mshr_miss_latency::total     24790500                       # number of ReadExReq MSHR miss cycles
system.l2.ReadCleanReq_mshr_miss_latency::cpu0.inst        93500                       # number of ReadCleanReq MSHR miss cycles
system.l2.ReadCleanReq_mshr_miss_latency::total        93500                       # number of ReadCleanReq MSHR miss cycles
system.l2.ReadSharedReq_mshr_miss_latency::cpu0.data  15642203000                       # number of ReadSharedReq MSHR miss cycles
system.l2.ReadSharedReq_mshr_miss_latency::total  15642203000                       # number of ReadSharedReq MSHR miss cycles
system.l2.demand_mshr_miss_latency::cpu0.inst        93500                       # number of demand (read+write) MSHR miss cycles
system.l2.demand_mshr_miss_latency::cpu0.data  15666993500                       # number of demand (read+write) MSHR miss cycles
system.l2.demand_mshr_miss_latency::total  15667087000                       # number of demand (read+write) MSHR miss cycles
system.l2.overall_mshr_miss_latency::cpu0.inst        93500                       # number of overall MSHR miss cycles
system.l2.overall_mshr_miss_latency::cpu0.data  15666993500                       # number of overall MSHR miss cycles
system.l2.overall_mshr_miss_latency::total  15667087000                       # number of overall MSHR miss cycles
system.l2.ReadExReq_mshr_miss_rate::cpu0.data     0.252747                       # mshr miss rate for ReadExReq accesses
system.l2.ReadExReq_mshr_miss_rate::total     0.252747                       # mshr miss rate for ReadExReq accesses
system.l2.ReadCleanReq_mshr_miss_rate::cpu0.inst            1                       # mshr miss rate for ReadCleanReq accesses
system.l2.ReadCleanReq_mshr_miss_rate::total            1                       # mshr miss rate for ReadCleanReq accesses
system.l2.ReadSharedReq_mshr_miss_rate::cpu0.data     0.609746                       # mshr miss rate for ReadSharedReq accesses
system.l2.ReadSharedReq_mshr_miss_rate::total     0.609746                       # mshr miss rate for ReadSharedReq accesses
system.l2.demand_mshr_miss_rate::cpu0.inst            1                       # mshr miss rate for demand accesses
system.l2.demand_mshr_miss_rate::cpu0.data     0.608459                       # mshr miss rate for demand accesses
system.l2.demand_mshr_miss_rate::total       0.608460                       # mshr miss rate for demand accesses
system.l2.overall_mshr_miss_rate::cpu0.inst            1                       # mshr miss rate for overall accesses
system.l2.overall_mshr_miss_rate::cpu0.data     0.608459                       # mshr miss rate for overall accesses
system.l2.overall_mshr_miss_rate::total      0.608460                       # mshr miss rate for overall accesses
system.l2.ReadExReq_avg_mshr_miss_latency::cpu0.data 89820.652174                       # average ReadExReq mshr miss latency
system.l2.ReadExReq_avg_mshr_miss_latency::total 89820.652174                       # average ReadExReq mshr miss latency
system.l2.ReadCleanReq_avg_mshr_miss_latency::cpu0.inst        93500                       # average ReadCleanReq mshr miss latency
system.l2.ReadCleanReq_avg_mshr_miss_latency::total        93500                       # average ReadCleanReq mshr miss latency
system.l2.ReadSharedReq_avg_mshr_miss_latency::cpu0.data 85037.853912                       # average ReadSharedReq mshr miss latency
system.l2.ReadSharedReq_avg_mshr_miss_latency::total 85037.853912                       # average ReadSharedReq mshr miss latency
system.l2.demand_avg_mshr_miss_latency::cpu0.inst        93500                       # average overall mshr miss latency
system.l2.demand_avg_mshr_miss_latency::cpu0.data 85045.019542                       # average overall mshr miss latency
system.l2.demand_avg_mshr_miss_latency::total 85045.065438                       # average overall mshr miss latency
system.l2.overall_avg_mshr_miss_latency::cpu0.inst        93500                       # average overall mshr miss latency
system.l2.overall_avg_mshr_miss_latency::cpu0.data 85045.019542                       # average overall mshr miss latency
system.l2.overall_avg_mshr_miss_latency::total 85045.065438                       # average overall mshr miss latency
system.membus.snoop_filter.tot_requests        368441                       # Total number of requests made to the snoop filter.
system.membus.snoop_filter.hit_single_requests       184222                       # Number of requests hitting in the snoop filter with a single holder of the requested data.
system.membus.snoop_filter.hit_multi_requests            0                       # Number of requests hitting in the snoop filter with multiple (>1) holders of the requested data.
system.membus.snoop_filter.tot_snoops               0                       # Total number of snoops made to the snoop filter.
system.membus.snoop_filter.hit_single_snoops            0                       # Number of snoops hitting in the snoop filter with a single holder of the requested data.
system.membus.snoop_filter.hit_multi_snoops            0                       # Number of snoops hitting in the snoop filter with multiple (>1) holders of the requested data.
system.membus.pwrStateResidencyTicks::UNDEFINED  15267344125                       # Cumulative time (in ticks) in various power states
system.membus.trans_dist::ReadResp             183946                       # Transaction distribution
system.membus.trans_dist::WritebackDirty          384                       # Transaction distribution
system.membus.trans_dist::CleanEvict           183836                       # Transaction distribution
system.membus.trans_dist::ReadExReq               276                       # Transaction distribution
system.membus.trans_dist::ReadExResp              276                       # Transaction distribution
system.membus.trans_dist::ReadSharedReq        183945                       # Transaction distribution
system.membus.pkt_count_system.l2.mem_side::system.mem_ctrls.port       552663                       # Packet count per connected master and slave (bytes)
system.membus.pkt_count_system.l2.mem_side::total       552663                       # Packet count per connected master and slave (bytes)
system.membus.pkt_count::total                 552663                       # Packet count per connected master and slave (bytes)
system.membus.pkt_size_system.l2.mem_side::system.mem_ctrls.port     11814784                       # Cumulative packet size per connected master and slave (bytes)
system.membus.pkt_size_system.l2.mem_side::total     11814784                       # Cumulative packet size per connected master and slave (bytes)
system.membus.pkt_size::total                11814784                       # Cumulative packet size per connected master and slave (bytes)
system.membus.snoops                                0                       # Total snoops (count)
system.membus.snoopTraffic                          0                       # Total snoop traffic (bytes)
system.membus.snoop_fanout::samples            184221                       # Request fanout histogram
system.membus.snoop_fanout::mean                    0                       # Request fanout histogram
system.membus.snoop_fanout::stdev                   0                       # Request fanout histogram
system.membus.snoop_fanout::underflows              0      0.00%      0.00% # Request fanout histogram
system.membus.snoop_fanout::0                  184221    100.00%    100.00% # Request fanout histogram
system.membus.snoop_fanout::1                       0      0.00%    100.00% # Request fanout histogram
system.membus.snoop_fanout::overflows               0      0.00%    100.00% # Request fanout histogram
system.membus.snoop_fanout::min_value               0                       # Request fanout histogram
system.membus.snoop_fanout::max_value               0                       # Request fanout histogram
system.membus.snoop_fanout::total              184221                       # Request fanout histogram
system.membus.reqLayer8.occupancy           432130500                       # Layer occupancy (ticks)
system.membus.reqLayer8.utilization               2.8                       # Layer utilization (%)
system.membus.respLayer1.occupancy          998619250                       # Layer occupancy (ticks)
system.membus.respLayer1.utilization              6.5                       # Layer utilization (%)
system.tol2bus.snoop_filter.tot_requests       605532                       # Total number of requests made to the snoop filter.
system.tol2bus.snoop_filter.hit_single_requests       302766                       # Number of requests hitting in the snoop filter with a single holder of the requested data.
system.tol2bus.snoop_filter.hit_multi_requests          716                       # Number of requests hitting in the snoop filter with multiple (>1) holders of the requested data.
system.tol2bus.snoop_filter.tot_snoops              2                       # Total number of snoops made to the snoop filter.
system.tol2bus.snoop_filter.hit_single_snoops            2                       # Number of snoops hitting in the snoop filter with a single holder of the requested data.
system.tol2bus.snoop_filter.hit_multi_snoops            0                       # Number of snoops hitting in the snoop filter with multiple (>1) holders of the requested data.
system.tol2bus.pwrStateResidencyTicks::UNDEFINED  15267344125                       # Cumulative time (in ticks) in various power states
system.tol2bus.trans_dist::ReadResp            301674                       # Transaction distribution
system.tol2bus.trans_dist::WritebackDirty         3451                       # Transaction distribution
system.tol2bus.trans_dist::WritebackClean            1                       # Transaction distribution
system.tol2bus.trans_dist::CleanEvict          483537                       # Transaction distribution
system.tol2bus.trans_dist::ReadExReq             1092                       # Transaction distribution
system.tol2bus.trans_dist::ReadExResp            1092                       # Transaction distribution
system.tol2bus.trans_dist::ReadCleanReq             1                       # Transaction distribution
system.tol2bus.trans_dist::ReadSharedReq       301673                       # Transaction distribution
system.tol2bus.pkt_count_system.cpu0.icache.mem_side::system.l2.cpu_side            3                       # Packet count per connected master and slave (bytes)
system.tol2bus.pkt_count_system.cpu0.dcache.mem_side::system.l2.cpu_side       908295                       # Packet count per connected master and slave (bytes)
system.tol2bus.pkt_count::total                908298                       # Packet count per connected master and slave (bytes)
system.tol2bus.pkt_size_system.cpu0.icache.mem_side::system.l2.cpu_side          128                       # Cumulative packet size per connected master and slave (bytes)
system.tol2bus.pkt_size_system.cpu0.dcache.mem_side::system.l2.cpu_side     19573248                       # Cumulative packet size per connected master and slave (bytes)
system.tol2bus.pkt_size::total               19573376                       # Cumulative packet size per connected master and slave (bytes)
system.tol2bus.snoops                          184223                       # Total snoops (count)
system.tol2bus.snoopTraffic                     24576                       # Total snoop traffic (bytes)
system.tol2bus.snoop_fanout::samples           486989                       # Request fanout histogram
system.tol2bus.snoop_fanout::mean            0.001474                       # Request fanout histogram
system.tol2bus.snoop_fanout::stdev           0.038369                       # Request fanout histogram
system.tol2bus.snoop_fanout::underflows             0      0.00%      0.00% # Request fanout histogram
system.tol2bus.snoop_fanout::0                 486271     99.85%     99.85% # Request fanout histogram
system.tol2bus.snoop_fanout::1                    718      0.15%    100.00% # Request fanout histogram
system.tol2bus.snoop_fanout::2                      0      0.00%    100.00% # Request fanout histogram
system.tol2bus.snoop_fanout::3                      0      0.00%    100.00% # Request fanout histogram
system.tol2bus.snoop_fanout::4                      0      0.00%    100.00% # Request fanout histogram
system.tol2bus.snoop_fanout::5                      0      0.00%    100.00% # Request fanout histogram
system.tol2bus.snoop_fanout::6                      0      0.00%    100.00% # Request fanout histogram
system.tol2bus.snoop_fanout::7                      0      0.00%    100.00% # Request fanout histogram
system.tol2bus.snoop_fanout::8                      0      0.00%    100.00% # Request fanout histogram
system.tol2bus.snoop_fanout::9                      0      0.00%    100.00% # Request fanout histogram
system.tol2bus.snoop_fanout::10                     0      0.00%    100.00% # Request fanout histogram
system.tol2bus.snoop_fanout::11                     0      0.00%    100.00% # Request fanout histogram
system.tol2bus.snoop_fanout::12                     0      0.00%    100.00% # Request fanout histogram
system.tol2bus.snoop_fanout::13                     0      0.00%    100.00% # Request fanout histogram
system.tol2bus.snoop_fanout::14                     0      0.00%    100.00% # Request fanout histogram
system.tol2bus.snoop_fanout::15                     0      0.00%    100.00% # Request fanout histogram
system.tol2bus.snoop_fanout::16                     0      0.00%    100.00% # Request fanout histogram
system.tol2bus.snoop_fanout::overflows              0      0.00%    100.00% # Request fanout histogram
system.tol2bus.snoop_fanout::min_value              0                       # Request fanout histogram
system.tol2bus.snoop_fanout::max_value              1                       # Request fanout histogram
system.tol2bus.snoop_fanout::total             486989                       # Request fanout histogram
system.tol2bus.reqLayer0.occupancy          305834000                       # Layer occupancy (ticks)
system.tol2bus.reqLayer0.utilization              2.0                       # Layer utilization (%)
system.tol2bus.respLayer0.occupancy              1500                       # Layer occupancy (ticks)
system.tol2bus.respLayer0.utilization             0.0                       # Layer utilization (%)
system.tol2bus.respLayer1.occupancy         454147500                       # Layer occupancy (ticks)
system.tol2bus.respLayer1.utilization             3.0                       # Layer utilization (%)

---------- End Simulation Statistics   ----------
