
---------- Begin Simulation Statistics ----------
sim_seconds                                  0.015267                       # Number of seconds simulated
sim_ticks                                 15267344125                       # Number of ticks simulated
final_tick                               1343526283000                       # Number of ticks from beginning of simulation (restored from checkpoints and never reset)
sim_freq                                 1000000000000                       # Frequency of simulated ticks
host_inst_rate                               13531731                       # Simulator instruction rate (inst/s)
host_op_rate                                 24793021                       # Simulator op (including micro ops) rate (op/s)
host_tick_rate                               69103986                       # Simulator tick rate (ticks/s)
host_mem_usage                                2331740                       # Number of bytes of host memory used
host_seconds                                   220.93                       # Real time elapsed on the host
sim_insts                                  2989604291                       # Number of instructions simulated
sim_ops                                    5477593950                       # Number of ops (including micro ops) simulated
system.voltage_domain.voltage                       1                       # Voltage in Volts
system.clk_domain.clock                          1000                       # Clock period in ticks
system.mem_ctrls.pwrStateResidencyTicks::UNDEFINED  15267344125                       # Cumulative time (in ticks) in various power states
system.mem_ctrls.bytes_read::cpu0.data         911168                       # Number of bytes read from this memory
system.mem_ctrls.bytes_read::total             911168                       # Number of bytes read from this memory
system.mem_ctrls.bytes_written::writebacks       860736                       # Number of bytes written to this memory
system.mem_ctrls.bytes_written::total          860736                       # Number of bytes written to this memory
system.mem_ctrls.num_reads::cpu0.data           14237                       # Number of read requests responded to by this memory
system.mem_ctrls.num_reads::total               14237                       # Number of read requests responded to by this memory
system.mem_ctrls.num_writes::writebacks         13449                       # Number of write requests responded to by this memory
system.mem_ctrls.num_writes::total              13449                       # Number of write requests responded to by this memory
system.mem_ctrls.bw_read::cpu0.data          59680845                       # Total read bandwidth from this memory (bytes/s)
system.mem_ctrls.bw_read::total              59680845                       # Total read bandwidth from this memory (bytes/s)
system.mem_ctrls.bw_write::writebacks        56377586                       # Write bandwidth from this memory (bytes/s)
system.mem_ctrls.bw_write::total             56377586                       # Write bandwidth from this memory (bytes/s)
system.mem_ctrls.bw_total::writebacks        56377586                       # Total bandwidth to/from this memory (bytes/s)
system.mem_ctrls.bw_total::cpu0.data         59680845                       # Total bandwidth to/from this memory (bytes/s)
system.mem_ctrls.bw_total::total            116058431                       # Total bandwidth to/from this memory (bytes/s)
system.mem_ctrls.readReqs                       14238                       # Number of read requests accepted
system.mem_ctrls.writeReqs                      13449                       # Number of write requests accepted
system.mem_ctrls.readBursts                     14238                       # Number of DRAM read bursts, including those serviced by the write queue
system.mem_ctrls.writeBursts                    13449                       # Number of DRAM write bursts, including those merged in the write queue
system.mem_ctrls.bytesReadDRAM                 911168                       # Total number of bytes read from DRAM
system.mem_ctrls.bytesReadWrQ                       0                       # Total number of bytes read from write queue
system.mem_ctrls.bytesWritten                  860992                       # Total number of bytes written to DRAM
system.mem_ctrls.bytesReadSys                  911232                       # Total read bytes from the system interface side
system.mem_ctrls.bytesWrittenSys               860736                       # Total written bytes from the system interface side
system.mem_ctrls.servicedByWrQ                      0                       # Number of DRAM read bursts serviced by the write queue
system.mem_ctrls.mergedWrBursts                     0                       # Number of DRAM write bursts merged with an existing one
system.mem_ctrls.neitherReadNorWriteReqs            0                       # Number of requests that are neither read nor write
system.mem_ctrls.perBankRdBursts::0               791                       # Per bank write bursts
system.mem_ctrls.perBankRdBursts::1               768                       # Per bank write bursts
system.mem_ctrls.perBankRdBursts::2               877                       # Per bank write bursts
system.mem_ctrls.perBankRdBursts::3               896                       # Per bank write bursts
system.mem_ctrls.perBankRdBursts::4               896                       # Per bank write bursts
system.mem_ctrls.perBankRdBursts::5               919                       # Per bank write bursts
system.mem_ctrls.perBankRdBursts::6               896                       # Per bank write bursts
system.mem_ctrls.perBankRdBursts::7               896                       # Per bank write bursts
system.mem_ctrls.perBankRdBursts::8               788                       # Per bank write bursts
system.mem_ctrls.perBankRdBursts::9               768                       # Per bank write bursts
system.mem_ctrls.perBankRdBursts::10              905                       # Per bank write bursts
system.mem_ctrls.perBankRdBursts::11              932                       # Per bank write bursts
system.mem_ctrls.perBankRdBursts::12             1024                       # Per bank write bursts
system.mem_ctrls.perBankRdBursts::13             1025                       # Per bank write bursts
system.mem_ctrls.perBankRdBursts::14              990                       # Per bank write bursts
system.mem_ctrls.perBankRdBursts::15              866                       # Per bank write bursts
system.mem_ctrls.perBankWrBursts::0               791                       # Per bank write bursts
system.mem_ctrls.perBankWrBursts::1               768                       # Per bank write bursts
system.mem_ctrls.perBankWrBursts::2               891                       # Per bank write bursts
system.mem_ctrls.perBankWrBursts::3               896                       # Per bank write bursts
system.mem_ctrls.perBankWrBursts::4               879                       # Per bank write bursts
system.mem_ctrls.perBankWrBursts::5               920                       # Per bank write bursts
system.mem_ctrls.perBankWrBursts::6               896                       # Per bank write bursts
system.mem_ctrls.perBankWrBursts::7               847                       # Per bank write bursts
system.mem_ctrls.perBankWrBursts::8               660                       # Per bank write bursts
system.mem_ctrls.perBankWrBursts::9               628                       # Per bank write bursts
system.mem_ctrls.perBankWrBursts::10              766                       # Per bank write bursts
system.mem_ctrls.perBankWrBursts::11              805                       # Per bank write bursts
system.mem_ctrls.perBankWrBursts::12              896                       # Per bank write bursts
system.mem_ctrls.perBankWrBursts::13              975                       # Per bank write bursts
system.mem_ctrls.perBankWrBursts::14              990                       # Per bank write bursts
system.mem_ctrls.perBankWrBursts::15              845                       # Per bank write bursts
system.mem_ctrls.numRdRetry                         0                       # Number of times read queue was full causing retry
system.mem_ctrls.numWrRetry                         0                       # Number of times write queue was full causing retry
system.mem_ctrls.totGap                   15267466500                       # Total gap between requests
system.mem_ctrls.readPktSize::0                     0                       # Read request sizes (log2)
system.mem_ctrls.readPktSize::1                     0                       # Read request sizes (log2)
system.mem_ctrls.readPktSize::2                     0                       # Read request sizes (log2)
system.mem_ctrls.readPktSize::3                     0                       # Read request sizes (log2)
system.mem_ctrls.readPktSize::4                     0                       # Read request sizes (log2)
system.mem_ctrls.readPktSize::5                     0                       # Read request sizes (log2)
system.mem_ctrls.readPktSize::6                 14238                       # Read request sizes (log2)
system.mem_ctrls.writePktSize::0                    0                       # Write request sizes (log2)
system.mem_ctrls.writePktSize::1                    0                       # Write request sizes (log2)
system.mem_ctrls.writePktSize::2                    0                       # Write request sizes (log2)
system.mem_ctrls.writePktSize::3                    0                       # Write request sizes (log2)
system.mem_ctrls.writePktSize::4                    0                       # Write request sizes (log2)
system.mem_ctrls.writePktSize::5                    0                       # Write request sizes (log2)
system.mem_ctrls.writePktSize::6                13449                       # Write request sizes (log2)
system.mem_ctrls.rdQLenPdf::0                   14237                       # What read queue length does an incoming req see
system.mem_ctrls.rdQLenPdf::1                       1                       # What read queue length does an incoming req see
system.mem_ctrls.rdQLenPdf::2                       0                       # What read queue length does an incoming req see
system.mem_ctrls.rdQLenPdf::3                       0                       # What read queue length does an incoming req see
system.mem_ctrls.rdQLenPdf::4                       0                       # What read queue length does an incoming req see
system.mem_ctrls.rdQLenPdf::5                       0                       # What read queue length does an incoming req see
system.mem_ctrls.rdQLenPdf::6                       0                       # What read queue length does an incoming req see
system.mem_ctrls.rdQLenPdf::7                       0                       # What read queue length does an incoming req see
system.mem_ctrls.rdQLenPdf::8                       0                       # What read queue length does an incoming req see
system.mem_ctrls.rdQLenPdf::9                       0                       # What read queue length does an incoming req see
system.mem_ctrls.rdQLenPdf::10                      0                       # What read queue length does an incoming req see
system.mem_ctrls.rdQLenPdf::11                      0                       # What read queue length does an incoming req see
system.mem_ctrls.rdQLenPdf::12                      0                       # What read queue length does an incoming req see
system.mem_ctrls.rdQLenPdf::13                      0                       # What read queue length does an incoming req see
system.mem_ctrls.rdQLenPdf::14                      0                       # What read queue length does an incoming req see
system.mem_ctrls.rdQLenPdf::15                      0                       # What read queue length does an incoming req see
system.mem_ctrls.rdQLenPdf::16                      0                       # What read queue length does an incoming req see
system.mem_ctrls.rdQLenPdf::17                      0                       # What read queue length does an incoming req see
system.mem_ctrls.rdQLenPdf::18                      0                       # What read queue length does an incoming req see
system.mem_ctrls.rdQLenPdf::19                      0                       # What read queue length does an incoming req see
system.mem_ctrls.rdQLenPdf::20                      0                       # What read queue length does an incoming req see
system.mem_ctrls.rdQLenPdf::21                      0                       # What read queue length does an incoming req see
system.mem_ctrls.rdQLenPdf::22                      0                       # What read queue length does an incoming req see
system.mem_ctrls.rdQLenPdf::23                      0                       # What read queue length does an incoming req see
system.mem_ctrls.rdQLenPdf::24                      0                       # What read queue length does an incoming req see
system.mem_ctrls.rdQLenPdf::25                      0                       # What read queue length does an incoming req see
system.mem_ctrls.rdQLenPdf::26                      0                       # What read queue length does an incoming req see
system.mem_ctrls.rdQLenPdf::27                      0                       # What read queue length does an incoming req see
system.mem_ctrls.rdQLenPdf::28                      0                       # What read queue length does an incoming req see
system.mem_ctrls.rdQLenPdf::29                      0                       # What read queue length does an incoming req see
system.mem_ctrls.rdQLenPdf::30                      0                       # What read queue length does an incoming req see
system.mem_ctrls.rdQLenPdf::31                      0                       # What read queue length does an incoming req see
system.mem_ctrls.wrQLenPdf::0                       0                       # What write queue length does an incoming req see
system.mem_ctrls.wrQLenPdf::1                       0                       # What write queue length does an incoming req see
system.mem_ctrls.wrQLenPdf::2                       0                       # What write queue length does an incoming req see
system.mem_ctrls.wrQLenPdf::3                       0                       # What write queue length does an incoming req see
system.mem_ctrls.wrQLenPdf::4                       0                       # What write queue length does an incoming req see
system.mem_ctrls.wrQLenPdf::5                       0                       # What write queue length does an incoming req see
system.mem_ctrls.wrQLenPdf::6                       0                       # What write queue length does an incoming req see
system.mem_ctrls.wrQLenPdf::7                       0                       # What write queue length does an incoming req see
system.mem_ctrls.wrQLenPdf::8                       0                       # What write queue length does an incoming req see
system.mem_ctrls.wrQLenPdf::9                       0                       # What write queue length does an incoming req see
system.mem_ctrls.wrQLenPdf::10                      0                       # What write queue length does an incoming req see
system.mem_ctrls.wrQLenPdf::11                      0                       # What write queue length does an incoming req see
system.mem_ctrls.wrQLenPdf::12                      0                       # What write queue length does an incoming req see
system.mem_ctrls.wrQLenPdf::13                      0                       # What write queue length does an incoming req see
system.mem_ctrls.wrQLenPdf::14                      0                       # What write queue length does an incoming req see
system.mem_ctrls.wrQLenPdf::15                    725                       # What write queue length does an incoming req see
system.mem_ctrls.wrQLenPdf::16                    726                       # What write queue length does an incoming req see
system.mem_ctrls.wrQLenPdf::17                    749                       # What write queue length does an incoming req see
system.mem_ctrls.wrQLenPdf::18                    749                       # What write queue length does an incoming req see
system.mem_ctrls.wrQLenPdf::19                    750                       # What write queue length does an incoming req see
system.mem_ctrls.wrQLenPdf::20                    750                       # What write queue length does an incoming req see
system.mem_ctrls.wrQLenPdf::21                    750                       # What write queue length does an incoming req see
system.mem_ctrls.wrQLenPdf::22                    750                       # What write queue length does an incoming req see
system.mem_ctrls.wrQLenPdf::23                    750                       # What write queue length does an incoming req see
system.mem_ctrls.wrQLenPdf::24                    750                       # What write queue length does an incoming req see
system.mem_ctrls.wrQLenPdf::25                    750                       # What write queue length does an incoming req see
system.mem_ctrls.wrQLenPdf::26                    750                       # What write queue length does an incoming req see
system.mem_ctrls.wrQLenPdf::27                    750                       # What write queue length does an incoming req see
system.mem_ctrls.wrQLenPdf::28                    750                       # What write queue length does an incoming req see
system.mem_ctrls.wrQLenPdf::29                    750                       # What write queue length does an incoming req see
system.mem_ctrls.wrQLenPdf::30                    750                       # What write queue length does an incoming req see
system.mem_ctrls.wrQLenPdf::31                    750                       # What write queue length does an incoming req see
system.mem_ctrls.wrQLenPdf::32                    750                       # What write queue length does an incoming req see
system.mem_ctrls.wrQLenPdf::33                      0                       # What write queue length does an incoming req see
system.mem_ctrls.wrQLenPdf::34                      0                       # What write queue length does an incoming req see
system.mem_ctrls.wrQLenPdf::35                      0                       # What write queue length does an incoming req see
system.mem_ctrls.wrQLenPdf::36                      0                       # What write queue length does an incoming req see
system.mem_ctrls.wrQLenPdf::37                      0                       # What write queue length does an incoming req see
system.mem_ctrls.wrQLenPdf::38                      0                       # What write queue length does an incoming req see
system.mem_ctrls.wrQLenPdf::39                      0                       # What write queue length does an incoming req see
system.mem_ctrls.wrQLenPdf::40                      0                       # What write queue length does an incoming req see
system.mem_ctrls.wrQLenPdf::41                      0                       # What write queue length does an incoming req see
system.mem_ctrls.wrQLenPdf::42                      0                       # What write queue length does an incoming req see
system.mem_ctrls.wrQLenPdf::43                      0                       # What write queue length does an incoming req see
system.mem_ctrls.wrQLenPdf::44                      0                       # What write queue length does an incoming req see
system.mem_ctrls.wrQLenPdf::45                      0                       # What write queue length does an incoming req see
system.mem_ctrls.wrQLenPdf::46                      0                       # What write queue length does an incoming req see
system.mem_ctrls.wrQLenPdf::47                      0                       # What write queue length does an incoming req see
system.mem_ctrls.wrQLenPdf::48                      0                       # What write queue length does an incoming req see
system.mem_ctrls.wrQLenPdf::49                      0                       # What write queue length does an incoming req see
system.mem_ctrls.wrQLenPdf::50                      0                       # What write queue length does an incoming req see
system.mem_ctrls.wrQLenPdf::51                      0                       # What write queue length does an incoming req see
system.mem_ctrls.wrQLenPdf::52                      0                       # What write queue length does an incoming req see
system.mem_ctrls.wrQLenPdf::53                      0                       # What write queue length does an incoming req see
system.mem_ctrls.wrQLenPdf::54                      0                       # What write queue length does an incoming req see
system.mem_ctrls.wrQLenPdf::55                      0                       # What write queue length does an incoming req see
system.mem_ctrls.wrQLenPdf::56                      0                       # What write queue length does an incoming req see
system.mem_ctrls.wrQLenPdf::57                      0                       # What write queue length does an incoming req see
system.mem_ctrls.wrQLenPdf::58                      0                       # What write queue length does an incoming req see
system.mem_ctrls.wrQLenPdf::59                      0                       # What write queue length does an incoming req see
system.mem_ctrls.wrQLenPdf::60                      0                       # What write queue length does an incoming req see
system.mem_ctrls.wrQLenPdf::61                      0                       # What write queue length does an incoming req see
system.mem_ctrls.wrQLenPdf::62                      0                       # What write queue length does an incoming req see
system.mem_ctrls.wrQLenPdf::63                      0                       # What write queue length does an incoming req see
system.mem_ctrls.bytesPerActivate::samples         5915                       # Bytes accessed per row activation
system.mem_ctrls.bytesPerActivate::mean    299.777515                       # Bytes accessed per row activation
system.mem_ctrls.bytesPerActivate::gmean   186.646866                       # Bytes accessed per row activation
system.mem_ctrls.bytesPerActivate::stdev   293.460063                       # Bytes accessed per row activation
system.mem_ctrls.bytesPerActivate::0-127         2300     38.88%     38.88% # Bytes accessed per row activation
system.mem_ctrls.bytesPerActivate::128-255          861     14.56%     53.44% # Bytes accessed per row activation
system.mem_ctrls.bytesPerActivate::256-383          531      8.98%     62.42% # Bytes accessed per row activation
system.mem_ctrls.bytesPerActivate::384-511         1459     24.67%     87.08% # Bytes accessed per row activation
system.mem_ctrls.bytesPerActivate::512-639           39      0.66%     87.74% # Bytes accessed per row activation
system.mem_ctrls.bytesPerActivate::640-767           47      0.79%     88.54% # Bytes accessed per row activation
system.mem_ctrls.bytesPerActivate::768-895           55      0.93%     89.47% # Bytes accessed per row activation
system.mem_ctrls.bytesPerActivate::896-1023           87      1.47%     90.94% # Bytes accessed per row activation
system.mem_ctrls.bytesPerActivate::1024-1151          536      9.06%    100.00% # Bytes accessed per row activation
system.mem_ctrls.bytesPerActivate::total         5915                       # Bytes accessed per row activation
system.mem_ctrls.rdPerTurnAround::samples          750                       # Reads before turning the bus around for writes
system.mem_ctrls.rdPerTurnAround::mean      18.985333                       # Reads before turning the bus around for writes
system.mem_ctrls.rdPerTurnAround::gmean     18.354749                       # Reads before turning the bus around for writes
system.mem_ctrls.rdPerTurnAround::stdev     10.078652                       # Reads before turning the bus around for writes
system.mem_ctrls.rdPerTurnAround::16-23           734     97.87%     97.87% # Reads before turning the bus around for writes
system.mem_ctrls.rdPerTurnAround::24-31             8      1.07%     98.93% # Reads before turning the bus around for writes
system.mem_ctrls.rdPerTurnAround::56-63             1      0.13%     99.07% # Reads before turning the bus around for writes
system.mem_ctrls.rdPerTurnAround::64-71             1      0.13%     99.20% # Reads before turning the bus around for writes
system.mem_ctrls.rdPerTurnAround::80-87             1      0.13%     99.33% # Reads before turning the bus around for writes
system.mem_ctrls.rdPerTurnAround::88-95             2      0.27%     99.60% # Reads before turning the bus around for writes
system.mem_ctrls.rdPerTurnAround::112-119            1      0.13%     99.73% # Reads before turning the bus around for writes
system.mem_ctrls.rdPerTurnAround::160-167            1      0.13%     99.87% # Reads before turning the bus around for writes
system.mem_ctrls.rdPerTurnAround::176-183            1      0.13%    100.00% # Reads before turning the bus around for writes
system.mem_ctrls.rdPerTurnAround::total           750                       # Reads before turning the bus around for writes
system.mem_ctrls.wrPerTurnAround::samples          750                       # Writes before turning the bus around for reads
system.mem_ctrls.wrPerTurnAround::mean      17.937333                       # Writes before turning the bus around for reads
system.mem_ctrls.wrPerTurnAround::gmean     17.933734                       # Writes before turning the bus around for reads
system.mem_ctrls.wrPerTurnAround::stdev      0.346747                       # Writes before turning the bus around for reads
system.mem_ctrls.wrPerTurnAround::16               23      3.07%      3.07% # Writes before turning the bus around for reads
system.mem_ctrls.wrPerTurnAround::17                1      0.13%      3.20% # Writes before turning the bus around for reads
system.mem_ctrls.wrPerTurnAround::18              726     96.80%    100.00% # Writes before turning the bus around for reads
system.mem_ctrls.wrPerTurnAround::total           750                       # Writes before turning the bus around for reads
system.mem_ctrls.totQLat                    334223250                       # Total ticks spent queuing
system.mem_ctrls.totMemAccLat               601167000                       # Total ticks spent from burst creation until serviced by the DRAM
system.mem_ctrls.totBusLat                   71185000                       # Total ticks spent in databus transfers
system.mem_ctrls.avgQLat                     23474.03                       # Average queueing delay per DRAM burst
system.mem_ctrls.avgBusLat                    4999.65                       # Average bus latency per DRAM burst
system.mem_ctrls.avgMemAccLat                42222.71                       # Average memory access latency per DRAM burst
system.mem_ctrls.avgRdBW                        59.68                       # Average DRAM read bandwidth in MiByte/s
system.mem_ctrls.avgWrBW                        56.39                       # Average achieved write bandwidth in MiByte/s
system.mem_ctrls.avgRdBWSys                     59.69                       # Average system read bandwidth in MiByte/s
system.mem_ctrls.avgWrBWSys                     56.38                       # Average system write bandwidth in MiByte/s
system.mem_ctrls.peakBW                      12800.00                       # Theoretical peak bandwidth in MiByte/s
system.mem_ctrls.busUtil                         0.91                       # Data bus utilization in percentage
system.mem_ctrls.busUtilRead                     0.47                       # Data bus utilization in percentage for reads
system.mem_ctrls.busUtilWrite                    0.44                       # Data bus utilization in percentage for writes
system.mem_ctrls.avgRdQLen                       1.00                       # Average read queue length when enqueuing
system.mem_ctrls.avgWrQLen                      24.59                       # Average write queue length when enqueuing
system.mem_ctrls.readRowHits                    10352                       # Number of row buffer hits during reads
system.mem_ctrls.writeRowHits                   11427                       # Number of row buffer hits during writes
system.mem_ctrls.readRowHitRate                 72.71                       # Row buffer hit rate for reads
system.mem_ctrls.writeRowHitRate                84.97                       # Row buffer hit rate for writes
system.mem_ctrls.avgGap                     551430.87                       # Average gap between requests
system.mem_ctrls.pageHitRate                    78.66                       # Row buffer hit rate, read and write combined
system.mem_ctrls_0.actEnergy                 15679440                       # Energy for activate commands per rank (pJ)
system.mem_ctrls_0.preEnergy                  8345205                       # Energy for precharge commands per rank (pJ)
system.mem_ctrls_0.readEnergy                49544460                       # Energy for read commands per rank (pJ)
system.mem_ctrls_0.writeEnergy               35955360                       # Energy for write commands per rank (pJ)
system.mem_ctrls_0.refreshEnergy         909667200.000000                       # Energy for refresh commands per rank (pJ)
system.mem_ctrls_0.actBackEnergy            448141410                       # Energy for active background per rank (pJ)
system.mem_ctrls_0.preBackEnergy             41722080                       # Energy for precharge background per rank (pJ)
system.mem_ctrls_0.actPowerDownEnergy      3178675110                       # Energy for active power-down per rank (pJ)
system.mem_ctrls_0.prePowerDownEnergy       751764480                       # Energy for precharge power-down per rank (pJ)
system.mem_ctrls_0.selfRefreshEnergy       1373696280                       # Energy for self refresh per rank (pJ)
system.mem_ctrls_0.totalEnergy             6813496575                       # Total energy per rank (pJ)
system.mem_ctrls_0.averagePower            446.279099                       # Core power per rank (mW)
system.mem_ctrls_0.totalIdleTime          14174937125                       # Total Idle time Per DRAM Rank
system.mem_ctrls_0.memoryStateTime::IDLE     62460000                       # Time in different power states
system.mem_ctrls_0.memoryStateTime::REF     386060000                       # Time in different power states
system.mem_ctrls_0.memoryStateTime::SREF   5246759500                       # Time in different power states
system.mem_ctrls_0.memoryStateTime::PRE_PDN   1957780250                       # Time in different power states
system.mem_ctrls_0.memoryStateTime::ACT     643338000                       # Time in different power states
system.mem_ctrls_0.memoryStateTime::ACT_PDN   6970946375                       # Time in different power states
system.mem_ctrls_1.actEnergy                 26525100                       # Energy for activate commands per rank (pJ)
system.mem_ctrls_1.preEnergy                 14102220                       # Energy for precharge commands per rank (pJ)
system.mem_ctrls_1.readEnergy                52107720                       # Energy for read commands per rank (pJ)
system.mem_ctrls_1.writeEnergy               34269300                       # Energy for write commands per rank (pJ)
system.mem_ctrls_1.refreshEnergy         1272919440.000000                       # Energy for refresh commands per rank (pJ)
system.mem_ctrls_1.actBackEnergy            724111470                       # Energy for active background per rank (pJ)
system.mem_ctrls_1.preBackEnergy             98127360                       # Energy for precharge background per rank (pJ)
system.mem_ctrls_1.actPowerDownEnergy      3685643370                       # Energy for active power-down per rank (pJ)
system.mem_ctrls_1.prePowerDownEnergy      1464615360                       # Energy for precharge power-down per rank (pJ)
system.mem_ctrls_1.selfRefreshEnergy        547680720                       # Energy for self refresh per rank (pJ)
system.mem_ctrls_1.totalEnergy             7920325380                       # Total energy per rank (pJ)
system.mem_ctrls_1.averagePower            518.775585                       # Core power per rank (mW)
system.mem_ctrls_1.totalIdleTime          13423378625                       # Total Idle time Per DRAM Rank
system.mem_ctrls_1.memoryStateTime::IDLE    200173750                       # Time in different power states
system.mem_ctrls_1.memoryStateTime::REF     540373000                       # Time in different power states
system.mem_ctrls_1.memoryStateTime::SREF   1526777500                       # Time in different power states
system.mem_ctrls_1.memoryStateTime::PRE_PDN   3814044000                       # Time in different power states
system.mem_ctrls_1.memoryStateTime::ACT    1103418750                       # Time in different power states
system.mem_ctrls_1.memoryStateTime::ACT_PDN   8082557125                       # Time in different power states
system.pwrStateResidencyTicks::UNDEFINED  15267344125                       # Cumulative time (in ticks) in various power states
system.cpu0.branchPred.lookups                5259517                       # Number of BP lookups
system.cpu0.branchPred.condPredicted          5259517                       # Number of conditional branches predicted
system.cpu0.branchPred.condIncorrect           109099                       # Number of conditional branches incorrect
system.cpu0.branchPred.BTBLookups             3580668                       # Number of BTB lookups
system.cpu0.branchPred.BTBHits                      0                       # Number of BTB hits
system.cpu0.branchPred.BTBCorrect                   0                       # Number of correct BTB predictions (this stat may not work properly.
system.cpu0.branchPred.BTBHitPct             0.000000                       # BTB Hit Percentage
system.cpu0.branchPred.usedRAS                 732273                       # Number of times the RAS was used to get a target.
system.cpu0.branchPred.RASInCorrect                 3                       # Number of incorrect RAS predictions.
system.cpu0.branchPred.indirectLookups        3580668                       # Number of indirect predictor lookups.
system.cpu0.branchPred.indirectHits           2522011                       # Number of indirect target hits.
system.cpu0.branchPred.indirectMisses         1058657                       # Number of indirect misses.
system.cpu0.branchPredindirectMispredicted           11                       # Number of mispredicted indirect branches.
system.cpu_voltage_domain.voltage                   1                       # Voltage in Volts
system.cpu_clk_domain.clock                       500                       # Clock period in ticks
system.cpu0.dtb.walker.pwrStateResidencyTicks::UNDEFINED  15267344125                       # Cumulative time (in ticks) in various power states
system.cpu0.dtb.rdAccesses                    8928399                       # TLB accesses on read requests
system.cpu0.dtb.wrAccesses                    2097571                       # TLB accesses on write requests
system.cpu0.dtb.rdMisses                          234                       # TLB misses on read requests
system.cpu0.dtb.wrMisses                            0                       # TLB misses on write requests
system.cpu0.apic_clk_domain.clock                8000                       # Clock period in ticks
system.cpu0.interrupts.pwrStateResidencyTicks::UNDEFINED  15267344125                       # Cumulative time (in ticks) in various power states
system.cpu0.itb.walker.pwrStateResidencyTicks::UNDEFINED  15267344125                       # Cumulative time (in ticks) in various power states
system.cpu0.itb.rdAccesses                          0                       # TLB accesses on read requests
system.cpu0.itb.wrAccesses                    6286315                       # TLB accesses on write requests
system.cpu0.itb.rdMisses                            0                       # TLB misses on read requests
system.cpu0.itb.wrMisses                            0                       # TLB misses on write requests
system.cpu0.workload.numSyscalls                    0                       # Number of system calls
system.cpu0.pwrStateResidencyTicks::ON    15267344125                       # Cumulative time (in ticks) in various power states
system.cpu0.numCycles                        30534689                       # number of cpu cycles simulated
system.cpu0.numWorkItemsStarted                     0                       # number of work items this cpu started
system.cpu0.numWorkItemsCompleted                   0                       # number of work items this cpu completed
system.cpu0.fetch.icacheStallCycles           6339186                       # Number of cycles fetch is stalled on an Icache miss
system.cpu0.fetch.Insts                      46490794                       # Number of instructions fetch has processed
system.cpu0.fetch.Branches                    5259517                       # Number of branches that fetch encountered
system.cpu0.fetch.predictedBranches           3254284                       # Number of branches that fetch has predicted taken
system.cpu0.fetch.Cycles                     24086287                       # Number of cycles fetch has run and was not squashing or blocked
system.cpu0.fetch.SquashCycles                 218432                       # Number of cycles fetch has spent squashing
system.cpu0.fetch.CacheLines                  6286315                       # Number of cache lines fetched
system.cpu0.fetch.IcacheSquashes                56317                       # Number of outstanding Icache misses that were squashed
system.cpu0.fetch.rateDist::samples          30534689                       # Number of instructions fetched each cycle (Total)
system.cpu0.fetch.rateDist::mean             2.660397                       # Number of instructions fetched each cycle (Total)
system.cpu0.fetch.rateDist::stdev            3.372947                       # Number of instructions fetched each cycle (Total)
system.cpu0.fetch.rateDist::underflows              0      0.00%      0.00% # Number of instructions fetched each cycle (Total)
system.cpu0.fetch.rateDist::0                16764595     54.90%     54.90% # Number of instructions fetched each cycle (Total)
system.cpu0.fetch.rateDist::1                  745699      2.44%     57.35% # Number of instructions fetched each cycle (Total)
system.cpu0.fetch.rateDist::2                 1661334      5.44%     62.79% # Number of instructions fetched each cycle (Total)
system.cpu0.fetch.rateDist::3                  654493      2.14%     64.93% # Number of instructions fetched each cycle (Total)
system.cpu0.fetch.rateDist::4                  961179      3.15%     68.08% # Number of instructions fetched each cycle (Total)
system.cpu0.fetch.rateDist::5                 1533985      5.02%     73.10% # Number of instructions fetched each cycle (Total)
system.cpu0.fetch.rateDist::6                  562021      1.84%     74.94% # Number of instructions fetched each cycle (Total)
system.cpu0.fetch.rateDist::7                  895286      2.93%     77.87% # Number of instructions fetched each cycle (Total)
system.cpu0.fetch.rateDist::8                 6756097     22.13%    100.00% # Number of instructions fetched each cycle (Total)
system.cpu0.fetch.rateDist::overflows               0      0.00%    100.00% # Number of instructions fetched each cycle (Total)
system.cpu0.fetch.rateDist::min_value               0                       # Number of instructions fetched each cycle (Total)
system.cpu0.fetch.rateDist::max_value               8                       # Number of instructions fetched each cycle (Total)
system.cpu0.fetch.rateDist::total            30534689                       # Number of instructions fetched each cycle (Total)
system.cpu0.fetch.branchRate                 0.172247                       # Number of branch fetches per cycle
system.cpu0.fetch.rate                       1.522557                       # Number of inst fetches per cycle
system.cpu0.decode.IdleCycles                 4140375                       # Number of cycles decode is idle
system.cpu0.decode.BlockedCycles             15731163                       # Number of cycles decode is blocked
system.cpu0.decode.RunCycles                  6229166                       # Number of cycles decode is running
system.cpu0.decode.UnblockCycles              4324769                       # Number of cycles decode is unblocking
system.cpu0.decode.SquashCycles                109216                       # Number of cycles decode is squashing
system.cpu0.decode.DecodedInsts              77658714                       # Number of instructions handled by decode
system.cpu0.rename.SquashCycles                109216                       # Number of cycles rename is squashing
system.cpu0.rename.IdleCycles                 5847201                       # Number of cycles rename is idle
system.cpu0.rename.BlockCycles                5655802                       # Number of cycles rename is blocking
system.cpu0.rename.serializeStallCycles             0                       # count of cycles rename stalled for serializing inst
system.cpu0.rename.RunCycles                  8788066                       # Number of cycles rename is running
system.cpu0.rename.UnblockCycles             10134404                       # Number of cycles rename is unblocking
system.cpu0.rename.RenamedInsts              77173635                       # Number of instructions processed by rename
system.cpu0.rename.ROBFullEvents               196184                       # Number of times rename has blocked due to ROB full
system.cpu0.rename.IQFullEvents               9063244                       # Number of times rename has blocked due to IQ full
system.cpu0.rename.RenamedOperands           83021744                       # Number of destination operands rename has renamed
system.cpu0.rename.RenameLookups            183313129                       # Number of register rename lookups that rename has made
system.cpu0.rename.int_rename_lookups        60330218                       # Number of integer rename lookups
system.cpu0.rename.fp_rename_lookups         75248662                       # Number of floating rename lookups
system.cpu0.rename.CommittedMaps             70488476                       # Number of HB maps that are committed
system.cpu0.rename.UndoneMaps                12533263                       # Number of HB maps that are undone due to squashing
system.cpu0.rename.serializingInsts                 0                       # count of serializing insts renamed
system.cpu0.rename.tempSerializingInsts             0                       # count of temporary serializing insts renamed
system.cpu0.rename.skidInsts                 23270738                       # count of insts added to the skid buffer
system.cpu0.memDep0.insertedLoads             9524147                       # Number of loads inserted to the mem dependence unit.
system.cpu0.memDep0.insertedStores            2099934                       # Number of stores inserted to the mem dependence unit.
system.cpu0.memDep0.conflictingLoads           425343                       # Number of conflicting loads.
system.cpu0.memDep0.conflictingStores          209429                       # Number of conflicting stores.
system.cpu0.iq.iqInstsAdded                  76498121                       # Number of instructions added to the IQ (excludes non-spec)
system.cpu0.iq.iqInstsIssued                 70811615                       # Number of instructions issued
system.cpu0.iq.iqSquashedInstsIssued                1                       # Number of squashed instructions issued
system.cpu0.iq.iqSquashedInstsExamined       10623458                       # Number of squashed instructions iterated over during squash; mainly for profiling
system.cpu0.iq.iqSquashedOperandsExamined     15303118                       # Number of squashed operands that are examined and possibly removed from graph
system.cpu0.iq.issued_per_cycle::samples     30534689                       # Number of insts issued each cycle
system.cpu0.iq.issued_per_cycle::mean        2.319055                       # Number of insts issued each cycle
system.cpu0.iq.issued_per_cycle::stdev       1.956912                       # Number of insts issued each cycle
system.cpu0.iq.issued_per_cycle::underflows            0      0.00%      0.00% # Number of insts issued each cycle
system.cpu0.iq.issued_per_cycle::0            6320353     20.70%     20.70% # Number of insts issued each cycle
system.cpu0.iq.issued_per_cycle::1            6129793     20.07%     40.77% # Number of insts issued each cycle
system.cpu0.iq.issued_per_cycle::2            5658695     18.53%     59.31% # Number of insts issued each cycle
system.cpu0.iq.issued_per_cycle::3            4852248     15.89%     75.20% # Number of insts issued each cycle
system.cpu0.iq.issued_per_cycle::4            2964382      9.71%     84.90% # Number of insts issued each cycle
system.cpu0.iq.issued_per_cycle::5            1977882      6.48%     91.38% # Number of insts issued each cycle
system.cpu0.iq.issued_per_cycle::6            1640180      5.37%     96.75% # Number of insts issued each cycle
system.cpu0.iq.issued_per_cycle::7             709578      2.32%     99.08% # Number of insts issued each cycle
system.cpu0.iq.issued_per_cycle::8             281578      0.92%    100.00% # Number of insts issued each cycle
system.cpu0.iq.issued_per_cycle::overflows            0      0.00%    100.00% # Number of insts issued each cycle
system.cpu0.iq.issued_per_cycle::min_value            0                       # Number of insts issued each cycle
system.cpu0.iq.issued_per_cycle::max_value            8                       # Number of insts issued each cycle
system.cpu0.iq.issued_per_cycle::total       30534689                       # Number of insts issued each cycle
system.cpu0.iq.fu_full::No_OpClass                  0      0.00%      0.00% # attempts to use FU when none available
system.cpu0.iq.fu_full::IntAlu                     14      0.01%      0.01% # attempts to use FU when none available
system.cpu0.iq.fu_full::IntMult                     0      0.00%      0.01% # attempts to use FU when none available
system.cpu0.iq.fu_full::IntDiv                      0      0.00%      0.01% # attempts to use FU when none available
system.cpu0.iq.fu_full::FloatAdd               106685     99.82%     99.83% # attempts to use FU when none available
system.cpu0.iq.fu_full::FloatCmp                    0      0.00%     99.83% # attempts to use FU when none available
system.cpu0.iq.fu_full::FloatCvt                    0      0.00%     99.83% # attempts to use FU when none available
system.cpu0.iq.fu_full::FloatMult                   0      0.00%     99.83% # attempts to use FU when none available
system.cpu0.iq.fu_full::FloatMultAcc                0      0.00%     99.83% # attempts to use FU when none available
system.cpu0.iq.fu_full::FloatDiv                    0      0.00%     99.83% # attempts to use FU when none available
system.cpu0.iq.fu_full::FloatMisc                   0      0.00%     99.83% # attempts to use FU when none available
system.cpu0.iq.fu_full::FloatSqrt                   0      0.00%     99.83% # attempts to use FU when none available
system.cpu0.iq.fu_full::SimdAdd                     0      0.00%     99.83% # attempts to use FU when none available
system.cpu0.iq.fu_full::SimdAddAcc                  0      0.00%     99.83% # attempts to use FU when none available
system.cpu0.iq.fu_full::SimdAlu                     0      0.00%     99.83% # attempts to use FU when none available
system.cpu0.iq.fu_full::SimdCmp                     0      0.00%     99.83% # attempts to use FU when none available
system.cpu0.iq.fu_full::SimdCvt                     0      0.00%     99.83% # attempts to use FU when none available
system.cpu0.iq.fu_full::SimdMisc                    0      0.00%     99.83% # attempts to use FU when none available
system.cpu0.iq.fu_full::SimdMult                    0      0.00%     99.83% # attempts to use FU when none available
system.cpu0.iq.fu_full::SimdMultAcc                 0      0.00%     99.83% # attempts to use FU when none available
system.cpu0.iq.fu_full::SimdShift                   0      0.00%     99.83% # attempts to use FU when none available
system.cpu0.iq.fu_full::SimdShiftAcc                0      0.00%     99.83% # attempts to use FU when none available
system.cpu0.iq.fu_full::SimdSqrt                    0      0.00%     99.83% # attempts to use FU when none available
system.cpu0.iq.fu_full::SimdFloatAdd                0      0.00%     99.83% # attempts to use FU when none available
system.cpu0.iq.fu_full::SimdFloatAlu                0      0.00%     99.83% # attempts to use FU when none available
system.cpu0.iq.fu_full::SimdFloatCmp                0      0.00%     99.83% # attempts to use FU when none available
system.cpu0.iq.fu_full::SimdFloatCvt                0      0.00%     99.83% # attempts to use FU when none available
system.cpu0.iq.fu_full::SimdFloatDiv                0      0.00%     99.83% # attempts to use FU when none available
system.cpu0.iq.fu_full::SimdFloatMisc               0      0.00%     99.83% # attempts to use FU when none available
system.cpu0.iq.fu_full::SimdFloatMult               0      0.00%     99.83% # attempts to use FU when none available
system.cpu0.iq.fu_full::SimdFloatMultAcc            0      0.00%     99.83% # attempts to use FU when none available
system.cpu0.iq.fu_full::SimdFloatSqrt               0      0.00%     99.83% # attempts to use FU when none available
system.cpu0.iq.fu_full::MemRead                   181      0.17%    100.00% # attempts to use FU when none available
system.cpu0.iq.fu_full::MemWrite                    0      0.00%    100.00% # attempts to use FU when none available
system.cpu0.iq.fu_full::FloatMemRead                0      0.00%    100.00% # attempts to use FU when none available
system.cpu0.iq.fu_full::FloatMemWrite               0      0.00%    100.00% # attempts to use FU when none available
system.cpu0.iq.fu_full::IprAccess                   0      0.00%    100.00% # attempts to use FU when none available
system.cpu0.iq.fu_full::InstPrefetch                0      0.00%    100.00% # attempts to use FU when none available
system.cpu0.iq.FU_type_0::No_OpClass             6205      0.01%      0.01% # Type of FU issued
system.cpu0.iq.FU_type_0::IntAlu             36839497     52.02%     52.03% # Type of FU issued
system.cpu0.iq.FU_type_0::IntMult                   0      0.00%     52.03% # Type of FU issued
system.cpu0.iq.FU_type_0::IntDiv                    0      0.00%     52.03% # Type of FU issued
system.cpu0.iq.FU_type_0::FloatAdd           22964404     32.43%     84.46% # Type of FU issued
system.cpu0.iq.FU_type_0::FloatCmp                  0      0.00%     84.46% # Type of FU issued
system.cpu0.iq.FU_type_0::FloatCvt                  0      0.00%     84.46% # Type of FU issued
system.cpu0.iq.FU_type_0::FloatMult                 0      0.00%     84.46% # Type of FU issued
system.cpu0.iq.FU_type_0::FloatMultAcc              0      0.00%     84.46% # Type of FU issued
system.cpu0.iq.FU_type_0::FloatDiv                  0      0.00%     84.46% # Type of FU issued
system.cpu0.iq.FU_type_0::FloatMisc                 0      0.00%     84.46% # Type of FU issued
system.cpu0.iq.FU_type_0::FloatSqrt                 0      0.00%     84.46% # Type of FU issued
system.cpu0.iq.FU_type_0::SimdAdd                   0      0.00%     84.46% # Type of FU issued
system.cpu0.iq.FU_type_0::SimdAddAcc                0      0.00%     84.46% # Type of FU issued
system.cpu0.iq.FU_type_0::SimdAlu                   0      0.00%     84.46% # Type of FU issued
system.cpu0.iq.FU_type_0::SimdCmp                   0      0.00%     84.46% # Type of FU issued
system.cpu0.iq.FU_type_0::SimdCvt                   0      0.00%     84.46% # Type of FU issued
system.cpu0.iq.FU_type_0::SimdMisc                  0      0.00%     84.46% # Type of FU issued
system.cpu0.iq.FU_type_0::SimdMult                  0      0.00%     84.46% # Type of FU issued
system.cpu0.iq.FU_type_0::SimdMultAcc               0      0.00%     84.46% # Type of FU issued
system.cpu0.iq.FU_type_0::SimdShift                 0      0.00%     84.46% # Type of FU issued
system.cpu0.iq.FU_type_0::SimdShiftAcc              0      0.00%     84.46% # Type of FU issued
system.cpu0.iq.FU_type_0::SimdSqrt                  0      0.00%     84.46% # Type of FU issued
system.cpu0.iq.FU_type_0::SimdFloatAdd              0      0.00%     84.46% # Type of FU issued
system.cpu0.iq.FU_type_0::SimdFloatAlu              0      0.00%     84.46% # Type of FU issued
system.cpu0.iq.FU_type_0::SimdFloatCmp              0      0.00%     84.46% # Type of FU issued
system.cpu0.iq.FU_type_0::SimdFloatCvt              0      0.00%     84.46% # Type of FU issued
system.cpu0.iq.FU_type_0::SimdFloatDiv              0      0.00%     84.46% # Type of FU issued
system.cpu0.iq.FU_type_0::SimdFloatMisc             0      0.00%     84.46% # Type of FU issued
system.cpu0.iq.FU_type_0::SimdFloatMult             0      0.00%     84.46% # Type of FU issued
system.cpu0.iq.FU_type_0::SimdFloatMultAcc            0      0.00%     84.46% # Type of FU issued
system.cpu0.iq.FU_type_0::SimdFloatSqrt             0      0.00%     84.46% # Type of FU issued
system.cpu0.iq.FU_type_0::MemRead             1957792      2.76%     87.23% # Type of FU issued
system.cpu0.iq.FU_type_0::MemWrite            1471391      2.08%     89.31% # Type of FU issued
system.cpu0.iq.FU_type_0::FloatMemRead        6945532      9.81%     99.11% # Type of FU issued
system.cpu0.iq.FU_type_0::FloatMemWrite        626794      0.89%    100.00% # Type of FU issued
system.cpu0.iq.FU_type_0::IprAccess                 0      0.00%    100.00% # Type of FU issued
system.cpu0.iq.FU_type_0::InstPrefetch              0      0.00%    100.00% # Type of FU issued
system.cpu0.iq.FU_type_0::total              70811615                       # Type of FU issued
system.cpu0.iq.rate                          2.319055                       # Inst issue rate
system.cpu0.iq.fu_busy_cnt                     106880                       # FU busy when requested
system.cpu0.iq.fu_busy_rate                  0.001509                       # FU busy rate (busy events/executed inst)
system.cpu0.iq.int_inst_queue_reads          97528323                       # Number of integer instruction queue reads
system.cpu0.iq.int_inst_queue_writes         37560541                       # Number of integer instruction queue writes
system.cpu0.iq.int_inst_queue_wakeup_accesses     33433933                       # Number of integer instruction queue wakeup accesses
system.cpu0.iq.fp_inst_queue_reads           74736478                       # Number of floating instruction queue reads
system.cpu0.iq.fp_inst_queue_writes          49561155                       # Number of floating instruction queue writes
system.cpu0.iq.fp_inst_queue_wakeup_accesses     37170494                       # Number of floating instruction queue wakeup accesses
system.cpu0.iq.vec_inst_queue_reads                 0                       # Number of vector instruction queue reads
system.cpu0.iq.vec_inst_queue_writes                0                       # Number of vector instruction queue writes
system.cpu0.iq.vec_inst_queue_wakeup_accesses            0                       # Number of vector instruction queue wakeup accesses
system.cpu0.iq.int_alu_accesses              33490703                       # Number of integer alu accesses
system.cpu0.iq.fp_alu_accesses               37421587                       # Number of floating point alu accesses
system.cpu0.iq.vec_alu_accesses                     0                       # Number of vector alu accesses
system.cpu0.iew.lsq.thread0.forwLoads          419069                       # Number of loads that had data forwarded from stores
system.cpu0.iew.lsq.thread0.invAddrLoads            0                       # Number of loads ignored due to an invalid address
system.cpu0.iew.lsq.thread0.squashedLoads      1411589                       # Number of loads squashed
system.cpu0.iew.lsq.thread0.ignoredResponses            6                       # Number of memory responses ignored because the instruction is squashed
system.cpu0.iew.lsq.thread0.memOrderViolation          117                       # Number of memory ordering violations
system.cpu0.iew.lsq.thread0.squashedStores         3600                       # Number of stores squashed
system.cpu0.iew.lsq.thread0.invAddrSwpfs            0                       # Number of software prefetches ignored due to an invalid address
system.cpu0.iew.lsq.thread0.blockedLoads            0                       # Number of blocked loads due to partial load-store forwarding
system.cpu0.iew.lsq.thread0.rescheduledLoads            0                       # Number of loads that were rescheduled
system.cpu0.iew.lsq.thread0.cacheBlocked            0                       # Number of times an access to memory failed due to the cache being blocked
system.cpu0.iew.iewIdleCycles                       0                       # Number of cycles IEW is idle
system.cpu0.iew.iewSquashCycles                109216                       # Number of cycles IEW is squashing
system.cpu0.iew.iewBlockCycles                3291376                       # Number of cycles IEW is blocking
system.cpu0.iew.iewUnblockCycles               109328                       # Number of cycles IEW is unblocking
system.cpu0.iew.iewDispatchedInsts           76498121                       # Number of instructions dispatched to IQ
system.cpu0.iew.iewDispSquashedInsts                2                       # Number of squashed instructions skipped by dispatch
system.cpu0.iew.iewDispLoadInsts              9524147                       # Number of dispatched load instructions
system.cpu0.iew.iewDispStoreInsts             2099934                       # Number of dispatched store instructions
system.cpu0.iew.iewDispNonSpecInsts                 0                       # Number of dispatched non-speculative instructions
system.cpu0.iew.iewIQFullEvents                 95782                       # Number of times the IQ has become full, causing a stall
system.cpu0.iew.iewLSQFullEvents                    0                       # Number of times the LSQ has become full, causing a stall
system.cpu0.iew.memOrderViolationEvents           117                       # Number of memory order violations
system.cpu0.iew.predictedTakenIncorrect         57327                       # Number of branches that were predicted taken incorrectly
system.cpu0.iew.predictedNotTakenIncorrect        51788                       # Number of branches that were predicted not taken incorrectly
system.cpu0.iew.branchMispredicts              109115                       # Number of branch mispredicts detected at execute
system.cpu0.iew.iewExecutedInsts             70613125                       # Number of executed instructions
system.cpu0.iew.iewExecLoadInsts              8902116                       # Number of load instructions executed
system.cpu0.iew.iewExecSquashedInsts           198491                       # Number of squashed instructions skipped in execute
system.cpu0.iew.exec_swp                            0                       # number of swp insts executed
system.cpu0.iew.exec_nop                            0                       # number of nop insts executed
system.cpu0.iew.exec_refs                    10999687                       # number of memory reference insts executed
system.cpu0.iew.exec_branches                 4714259                       # Number of branches executed
system.cpu0.iew.exec_stores                   2097571                       # Number of stores executed
system.cpu0.iew.exec_rate                    2.312554                       # Inst execution rate
system.cpu0.iew.wb_sent                      70608431                       # cumulative count of insts sent to commit
system.cpu0.iew.wb_count                     70604427                       # cumulative count of insts written-back
system.cpu0.iew.wb_producers                 52553201                       # num instructions producing a value
system.cpu0.iew.wb_consumers                 92490112                       # num instructions consuming a value
system.cpu0.iew.wb_rate                      2.312269                       # insts written-back per cycle
system.cpu0.iew.wb_fanout                    0.568203                       # average fanout of values written-back
system.cpu0.commit.commitSquashedInsts       10623458                       # The number of squashed insts skipped by commit
system.cpu0.commit.branchMispredicts           109099                       # The number of times a branch was mispredicted
system.cpu0.commit.committed_per_cycle::samples     29175962                       # Number of insts commited each cycle
system.cpu0.commit.committed_per_cycle::mean     2.257840                       # Number of insts commited each cycle
system.cpu0.commit.committed_per_cycle::stdev     2.862144                       # Number of insts commited each cycle
system.cpu0.commit.committed_per_cycle::underflows            0      0.00%      0.00% # Number of insts commited each cycle
system.cpu0.commit.committed_per_cycle::0     10919556     37.43%     37.43% # Number of insts commited each cycle
system.cpu0.commit.committed_per_cycle::1      7527827     25.80%     63.23% # Number of insts commited each cycle
system.cpu0.commit.committed_per_cycle::2      1055801      3.62%     66.85% # Number of insts commited each cycle
system.cpu0.commit.committed_per_cycle::3      2913994      9.99%     76.83% # Number of insts commited each cycle
system.cpu0.commit.committed_per_cycle::4      1142704      3.92%     80.75% # Number of insts commited each cycle
system.cpu0.commit.committed_per_cycle::5       216958      0.74%     81.49% # Number of insts commited each cycle
system.cpu0.commit.committed_per_cycle::6       421049      1.44%     82.94% # Number of insts commited each cycle
system.cpu0.commit.committed_per_cycle::7       513243      1.76%     84.70% # Number of insts commited each cycle
system.cpu0.commit.committed_per_cycle::8      4464830     15.30%    100.00% # Number of insts commited each cycle
system.cpu0.commit.committed_per_cycle::overflows            0      0.00%    100.00% # Number of insts commited each cycle
system.cpu0.commit.committed_per_cycle::min_value            0                       # Number of insts commited each cycle
system.cpu0.commit.committed_per_cycle::max_value            8                       # Number of insts commited each cycle
system.cpu0.commit.committed_per_cycle::total     29175962                       # Number of insts commited each cycle
system.cpu0.commit.committedInsts            37100263                       # Number of instructions committed
system.cpu0.commit.committedOps              65874652                       # Number of ops (including micro ops) committed
system.cpu0.commit.swp_count                        0                       # Number of s/w prefetches committed
system.cpu0.commit.refs                      10208889                       # Number of memory references committed
system.cpu0.commit.loads                      8112557                       # Number of loads committed
system.cpu0.commit.membars                          0                       # Number of memory barriers committed
system.cpu0.commit.branches                   4607542                       # Number of branches committed
system.cpu0.commit.vec_insts                        0                       # Number of committed Vector instructions.
system.cpu0.commit.fp_insts                  34059253                       # Number of committed floating point instructions.
system.cpu0.commit.int_insts                 40899333                       # Number of committed integer instructions.
system.cpu0.commit.function_calls              626777                       # Number of function calls committed.
system.cpu0.commit.op_class_0::No_OpClass         5984      0.01%      0.01% # Class of committed instruction
system.cpu0.commit.op_class_0::IntAlu        34242674     51.98%     51.99% # Class of committed instruction
system.cpu0.commit.op_class_0::IntMult              0      0.00%     51.99% # Class of committed instruction
system.cpu0.commit.op_class_0::IntDiv               0      0.00%     51.99% # Class of committed instruction
system.cpu0.commit.op_class_0::FloatAdd      21417105     32.51%     84.50% # Class of committed instruction
system.cpu0.commit.op_class_0::FloatCmp             0      0.00%     84.50% # Class of committed instruction
system.cpu0.commit.op_class_0::FloatCvt             0      0.00%     84.50% # Class of committed instruction
system.cpu0.commit.op_class_0::FloatMult            0      0.00%     84.50% # Class of committed instruction
system.cpu0.commit.op_class_0::FloatMultAcc            0      0.00%     84.50% # Class of committed instruction
system.cpu0.commit.op_class_0::FloatDiv             0      0.00%     84.50% # Class of committed instruction
system.cpu0.commit.op_class_0::FloatMisc            0      0.00%     84.50% # Class of committed instruction
system.cpu0.commit.op_class_0::FloatSqrt            0      0.00%     84.50% # Class of committed instruction
system.cpu0.commit.op_class_0::SimdAdd              0      0.00%     84.50% # Class of committed instruction
system.cpu0.commit.op_class_0::SimdAddAcc            0      0.00%     84.50% # Class of committed instruction
system.cpu0.commit.op_class_0::SimdAlu              0      0.00%     84.50% # Class of committed instruction
system.cpu0.commit.op_class_0::SimdCmp              0      0.00%     84.50% # Class of committed instruction
system.cpu0.commit.op_class_0::SimdCvt              0      0.00%     84.50% # Class of committed instruction
system.cpu0.commit.op_class_0::SimdMisc             0      0.00%     84.50% # Class of committed instruction
system.cpu0.commit.op_class_0::SimdMult             0      0.00%     84.50% # Class of committed instruction
system.cpu0.commit.op_class_0::SimdMultAcc            0      0.00%     84.50% # Class of committed instruction
system.cpu0.commit.op_class_0::SimdShift            0      0.00%     84.50% # Class of committed instruction
system.cpu0.commit.op_class_0::SimdShiftAcc            0      0.00%     84.50% # Class of committed instruction
system.cpu0.commit.op_class_0::SimdSqrt             0      0.00%     84.50% # Class of committed instruction
system.cpu0.commit.op_class_0::SimdFloatAdd            0      0.00%     84.50% # Class of committed instruction
system.cpu0.commit.op_class_0::SimdFloatAlu            0      0.00%     84.50% # Class of committed instruction
system.cpu0.commit.op_class_0::SimdFloatCmp            0      0.00%     84.50% # Class of committed instruction
system.cpu0.commit.op_class_0::SimdFloatCvt            0      0.00%     84.50% # Class of committed instruction
system.cpu0.commit.op_class_0::SimdFloatDiv            0      0.00%     84.50% # Class of committed instruction
system.cpu0.commit.op_class_0::SimdFloatMisc            0      0.00%     84.50% # Class of committed instruction
system.cpu0.commit.op_class_0::SimdFloatMult            0      0.00%     84.50% # Class of committed instruction
system.cpu0.commit.op_class_0::SimdFloatMultAcc            0      0.00%     84.50% # Class of committed instruction
system.cpu0.commit.op_class_0::SimdFloatSqrt            0      0.00%     84.50% # Class of committed instruction
system.cpu0.commit.op_class_0::MemRead        1947604      2.96%     87.46% # Class of committed instruction
system.cpu0.commit.op_class_0::MemWrite       1469551      2.23%     89.69% # Class of committed instruction
system.cpu0.commit.op_class_0::FloatMemRead      6164953      9.36%     99.05% # Class of committed instruction
system.cpu0.commit.op_class_0::FloatMemWrite       626781      0.95%    100.00% # Class of committed instruction
system.cpu0.commit.op_class_0::IprAccess            0      0.00%    100.00% # Class of committed instruction
system.cpu0.commit.op_class_0::InstPrefetch            0      0.00%    100.00% # Class of committed instruction
system.cpu0.commit.op_class_0::total         65874652                       # Class of committed instruction
system.cpu0.commit.bw_lim_events              4464830                       # number cycles where commit BW limit reached
system.cpu0.rob.rob_reads                   101209242                       # The number of ROB reads
system.cpu0.rob.rob_writes                  154354983                       # The number of ROB writes
system.cpu0.committedInsts                   37100263                       # Number of Instructions Simulated
system.cpu0.committedOps                     65874652                       # Number of Ops (including micro ops) Simulated
system.cpu0.cpi                              0.823032                       # CPI: Cycles Per Instruction
system.cpu0.cpi_total                        0.823032                       # CPI: Total CPI of All Threads
system.cpu0.ipc                              1.215020                       # IPC: Instructions Per Cycle
system.cpu0.ipc_total                        1.215020                       # IPC: Total IPC of All Threads
system.cpu0.int_regfile_reads                56185726                       # number of integer regfile reads
system.cpu0.int_regfile_writes               28598228                       # number of integer regfile writes
system.cpu0.fp_regfile_reads                 64778232                       # number of floating regfile reads
system.cpu0.fp_regfile_writes                33310541                       # number of floating regfile writes
system.cpu0.cc_regfile_reads                 20597262                       # number of cc regfile reads
system.cpu0.cc_regfile_writes                13414226                       # number of cc regfile writes
system.cpu0.misc_regfile_reads               24156059                       # number of misc regfile reads
system.cpu0.dcache.tags.pwrStateResidencyTicks::UNDEFINED  15267344125                       # Cumulative time (in ticks) in various power states
system.cpu0.dcache.tags.replacements            14255                       # number of replacements
system.cpu0.dcache.tags.tagsinuse                1024                       # Cycle average of tags in use
system.cpu0.dcache.tags.total_refs            1070774                       # Total number of references to valid blocks.
system.cpu0.dcache.tags.sampled_refs            14255                       # Sample count of references to valid blocks.
system.cpu0.dcache.tags.avg_refs            75.115679                       # Average number of references to valid blocks.
system.cpu0.dcache.tags.warmup_cycle                0                       # Cycle when the warmup percentage was hit.
system.cpu0.dcache.tags.occ_blocks::cpu0.data         1024                       # Average occupied blocks per requestor
system.cpu0.dcache.tags.occ_percent::cpu0.data            1                       # Average percentage of cache occupancy
system.cpu0.dcache.tags.occ_percent::total            1                       # Average percentage of cache occupancy
system.cpu0.dcache.tags.occ_task_id_blocks::1024         1024                       # Occupied blocks per task id
system.cpu0.dcache.tags.age_task_id_blocks_1024::0            8                       # Occupied blocks per task id
system.cpu0.dcache.tags.age_task_id_blocks_1024::1           85                       # Occupied blocks per task id
system.cpu0.dcache.tags.age_task_id_blocks_1024::2          685                       # Occupied blocks per task id
system.cpu0.dcache.tags.age_task_id_blocks_1024::3           26                       # Occupied blocks per task id
system.cpu0.dcache.tags.age_task_id_blocks_1024::4          220                       # Occupied blocks per task id
system.cpu0.dcache.tags.occ_task_id_percent::1024            1                       # Percentage of cache occupancy per task id
system.cpu0.dcache.tags.tag_accesses         42436879                       # Number of tag accesses
system.cpu0.dcache.tags.data_accesses        42436879                       # Number of data accesses
system.cpu0.dcache.pwrStateResidencyTicks::UNDEFINED  15267344125                       # Cumulative time (in ticks) in various power states
system.cpu0.dcache.ReadReq_hits::cpu0.data      8494985                       # number of ReadReq hits
system.cpu0.dcache.ReadReq_hits::total        8494985                       # number of ReadReq hits
system.cpu0.dcache.WriteReq_hits::cpu0.data      2096333                       # number of WriteReq hits
system.cpu0.dcache.WriteReq_hits::total       2096333                       # number of WriteReq hits
system.cpu0.dcache.demand_hits::cpu0.data     10591318                       # number of demand (read+write) hits
system.cpu0.dcache.demand_hits::total        10591318                       # number of demand (read+write) hits
system.cpu0.dcache.overall_hits::cpu0.data     10591318                       # number of overall hits
system.cpu0.dcache.overall_hits::total       10591318                       # number of overall hits
system.cpu0.dcache.ReadReq_misses::cpu0.data        14338                       # number of ReadReq misses
system.cpu0.dcache.ReadReq_misses::total        14338                       # number of ReadReq misses
system.cpu0.dcache.demand_misses::cpu0.data        14338                       # number of demand (read+write) misses
system.cpu0.dcache.demand_misses::total         14338                       # number of demand (read+write) misses
system.cpu0.dcache.overall_misses::cpu0.data        14338                       # number of overall misses
system.cpu0.dcache.overall_misses::total        14338                       # number of overall misses
system.cpu0.dcache.ReadReq_miss_latency::cpu0.data   1370244000                       # number of ReadReq miss cycles
system.cpu0.dcache.ReadReq_miss_latency::total   1370244000                       # number of ReadReq miss cycles
system.cpu0.dcache.demand_miss_latency::cpu0.data   1370244000                       # number of demand (read+write) miss cycles
system.cpu0.dcache.demand_miss_latency::total   1370244000                       # number of demand (read+write) miss cycles
system.cpu0.dcache.overall_miss_latency::cpu0.data   1370244000                       # number of overall miss cycles
system.cpu0.dcache.overall_miss_latency::total   1370244000                       # number of overall miss cycles
system.cpu0.dcache.ReadReq_accesses::cpu0.data      8509323                       # number of ReadReq accesses(hits+misses)
system.cpu0.dcache.ReadReq_accesses::total      8509323                       # number of ReadReq accesses(hits+misses)
system.cpu0.dcache.WriteReq_accesses::cpu0.data      2096333                       # number of WriteReq accesses(hits+misses)
system.cpu0.dcache.WriteReq_accesses::total      2096333                       # number of WriteReq accesses(hits+misses)
system.cpu0.dcache.demand_accesses::cpu0.data     10605656                       # number of demand (read+write) accesses
system.cpu0.dcache.demand_accesses::total     10605656                       # number of demand (read+write) accesses
system.cpu0.dcache.overall_accesses::cpu0.data     10605656                       # number of overall (read+write) accesses
system.cpu0.dcache.overall_accesses::total     10605656                       # number of overall (read+write) accesses
system.cpu0.dcache.ReadReq_miss_rate::cpu0.data     0.001685                       # miss rate for ReadReq accesses
system.cpu0.dcache.ReadReq_miss_rate::total     0.001685                       # miss rate for ReadReq accesses
system.cpu0.dcache.demand_miss_rate::cpu0.data     0.001352                       # miss rate for demand accesses
system.cpu0.dcache.demand_miss_rate::total     0.001352                       # miss rate for demand accesses
system.cpu0.dcache.overall_miss_rate::cpu0.data     0.001352                       # miss rate for overall accesses
system.cpu0.dcache.overall_miss_rate::total     0.001352                       # miss rate for overall accesses
system.cpu0.dcache.ReadReq_avg_miss_latency::cpu0.data 95567.303669                       # average ReadReq miss latency
system.cpu0.dcache.ReadReq_avg_miss_latency::total 95567.303669                       # average ReadReq miss latency
system.cpu0.dcache.demand_avg_miss_latency::cpu0.data 95567.303669                       # average overall miss latency
system.cpu0.dcache.demand_avg_miss_latency::total 95567.303669                       # average overall miss latency
system.cpu0.dcache.overall_avg_miss_latency::cpu0.data 95567.303669                       # average overall miss latency
system.cpu0.dcache.overall_avg_miss_latency::total 95567.303669                       # average overall miss latency
system.cpu0.dcache.blocked_cycles::no_mshrs            0                       # number of cycles access was blocked
system.cpu0.dcache.blocked_cycles::no_targets            0                       # number of cycles access was blocked
system.cpu0.dcache.blocked::no_mshrs                0                       # number of cycles access was blocked
system.cpu0.dcache.blocked::no_targets              0                       # number of cycles access was blocked
system.cpu0.dcache.avg_blocked_cycles::no_mshrs          nan                       # average number of cycles each access was blocked
system.cpu0.dcache.avg_blocked_cycles::no_targets          nan                       # average number of cycles each access was blocked
system.cpu0.dcache.writebacks::writebacks        13425                       # number of writebacks
system.cpu0.dcache.writebacks::total            13425                       # number of writebacks
system.cpu0.dcache.ReadReq_mshr_hits::cpu0.data           82                       # number of ReadReq MSHR hits
system.cpu0.dcache.ReadReq_mshr_hits::total           82                       # number of ReadReq MSHR hits
system.cpu0.dcache.demand_mshr_hits::cpu0.data           82                       # number of demand (read+write) MSHR hits
system.cpu0.dcache.demand_mshr_hits::total           82                       # number of demand (read+write) MSHR hits
system.cpu0.dcache.overall_mshr_hits::cpu0.data           82                       # number of overall MSHR hits
system.cpu0.dcache.overall_mshr_hits::total           82                       # number of overall MSHR hits
system.cpu0.dcache.ReadReq_mshr_misses::cpu0.data        14256                       # number of ReadReq MSHR misses
system.cpu0.dcache.ReadReq_mshr_misses::total        14256                       # number of ReadReq MSHR misses
system.cpu0.dcache.demand_mshr_misses::cpu0.data        14256                       # number of demand (read+write) MSHR misses
[...]
system.l2.tags.pwrStateResidencyTicks::UNDEFINED  15267344125                       # Cumulative time (in ticks) in various power states
system.l2.tags.replacements                     14237                       # number of replacements
system.l2.tags.tagsinuse                        49152                       # Cycle average of tags in use
system.l2.tags.total_refs                       14237                       # Total number of references to valid blocks.
system.l2.tags.sampled_refs                     14237                       # Sample count of references to valid blocks.
system.l2.tags.avg_refs                             1                       # Average number of references to valid blocks.
system.l2.tags.warmup_cycle                         0                       # Cycle when the warmup percentage was hit.
system.l2.tags.occ_blocks::cpu0.data            49152                       # Average occupied blocks per requestor
system.l2.tags.occ_percent::cpu0.data               1                       # Average percentage of cache occupancy
system.l2.tags.occ_percent::total                   1                       # Average percentage of cache occupancy
system.l2.tags.occ_task_id_blocks::1024         49152                       # Occupied blocks per task id
system.l2.tags.age_task_id_blocks_1024::0            8                       # Occupied blocks per task id
system.l2.tags.age_task_id_blocks_1024::1           85                       # Occupied blocks per task id
system.l2.tags.age_task_id_blocks_1024::2          834                       # Occupied blocks per task id
system.l2.tags.age_task_id_blocks_1024::3         8400                       # Occupied blocks per task id
system.l2.tags.age_task_id_blocks_1024::4        39825                       # Occupied blocks per task id
system.l2.tags.occ_task_id_percent::1024            1                       # Percentage of cache occupancy per task id
system.l2.tags.tag_accesses                    356369                       # Number of tag accesses
system.l2.tags.data_accesses                   356369                       # Number of data accesses
system.l2.pwrStateResidencyTicks::UNDEFINED  15267344125                       # Cumulative time (in ticks) in various power states
system.l2.WritebackDirty_hits::writebacks        13425                       # number of WritebackDirty hits
system.l2.WritebackDirty_hits::total            13425                       # number of WritebackDirty hits
system.l2.ReadSharedReq_hits::cpu0.data            18                       # number of ReadSharedReq hits
system.l2.ReadSharedReq_hits::total                18                       # number of ReadSharedReq hits
system.l2.demand_hits::cpu0.data                   18                       # number of demand (read+write) hits
system.l2.demand_hits::total                       18                       # number of demand (read+write) hits
system.l2.overall_hits::cpu0.data                  18                       # number of overall hits
system.l2.overall_hits::total                      18                       # number of overall hits
system.l2.ReadSharedReq_misses::cpu0.data        14238                       # number of ReadSharedReq misses
system.l2.ReadSharedReq_misses::total           14238                       # number of ReadSharedReq misses
system.l2.demand_misses::cpu0.data              14238                       # number of demand (read+write) misses
system.l2.demand_misses::total                  14238                       # number of demand (read+write) misses
system.l2.overall_misses::cpu0.data             14238                       # number of overall misses
system.l2.overall_misses::total                 14238                       # number of overall misses
system.l2.ReadSharedReq_miss_latency::cpu0.data   1328361500                       # number of ReadSharedReq miss cycles
system.l2.ReadSharedReq_miss_latency::total   1328361500                       # number of ReadSharedReq miss cycles
system.l2.demand_miss_latency::cpu0.data   1328361500                       # number of demand (read+write) miss cycles
system.l2.demand_miss_latency::total       1328361500                       # number of demand (read+write) miss cycles
system.l2.overall_miss_latency::cpu0.data   1328361500                       # number of overall miss cycles
system.l2.overall_miss_latency::total      1328361500                       # number of overall miss cycles
system.l2.WritebackDirty_accesses::writebacks        13425                       # number of WritebackDirty accesses(hits+misses)
system.l2.WritebackDirty_accesses::total        13425                       # number of WritebackDirty accesses(hits+misses)
system.l2.ReadSharedReq_accesses::cpu0.data        14256                       # number of ReadSharedReq accesses(hits+misses)
system.l2.ReadSharedReq_accesses::total         14256                       # number of ReadSharedReq accesses(hits+misses)
system.l2.demand_accesses::cpu0.data            14256                       # number of demand (read+write) accesses
system.l2.demand_accesses::total                14256                       # number of demand (read+write) accesses
system.l2.overall_accesses::cpu0.data           14256                       # number of overall (read+write) accesses
system.l2.overall_accesses::total               14256                       # number of overall (read+write) accesses
system.l2.ReadSharedReq_miss_rate::cpu0.data     0.998737                       # miss rate for ReadSharedReq accesses
system.l2.ReadSharedReq_miss_rate::total     0.998737                       # miss rate for ReadSharedReq accesses
system.l2.demand_miss_rate::cpu0.data        0.998737                       # miss rate for demand accesses
system.l2.demand_miss_rate::total            0.998737                       # miss rate for demand accesses
system.l2.overall_miss_rate::cpu0.data       0.998737                       # miss rate for overall accesses
system.l2.overall_miss_rate::total           0.998737                       # miss rate for overall accesses
system.l2.ReadSharedReq_avg_miss_latency::cpu0.data 93296.916702                       # average ReadSharedReq miss latency
system.l2.ReadSharedReq_avg_miss_latency::total 93296.916702                       # average ReadSharedReq miss latency
system.l2.demand_avg_miss_latency::cpu0.data 93296.916702                       # average overall miss latency
system.l2.demand_avg_miss_latency::total 93296.916702                       # average overall miss latency
system.l2.overall_avg_miss_latency::cpu0.data 93296.916702                       # average overall miss latency
system.l2.overall_avg_miss_latency::total 93296.916702                       # average overall miss latency
system.l2.blocked_cycles::no_mshrs                  0                       # number of cycles access was blocked
system.l2.blocked_cycles::no_targets                0                       # number of cycles access was blocked
system.l2.blocked::no_mshrs                         0                       # number of cycles access was blocked
system.l2.blocked::no_targets                       0                       # number of cycles access was blocked
system.l2.avg_blocked_cycles::no_mshrs            nan                       # average number of cycles each access was blocked
system.l2.avg_blocked_cycles::no_targets          nan                       # average number of cycles each access was blocked
system.l2.writebacks::writebacks                13449                       # number of writebacks
system.l2.writebacks::total                     13449                       # number of writebacks
system.l2.ReadSharedReq_mshr_misses::cpu0.data        14238                       # number of ReadSharedReq MSHR misses
system.l2.ReadSharedReq_mshr_misses::total        14238                       # number of ReadSharedReq MSHR misses
system.l2.demand_mshr_misses::cpu0.data         14238                       # number of demand (read+write) MSHR misses
system.l2.demand_mshr_misses::total             14238                       # number of demand (read+write) MSHR misses
system.l2.overall_mshr_misses::cpu0.data        14238                       # number of overall MSHR misses
system.l2.overall_mshr_misses::total            14238                       # number of overall MSHR misses
system.l2.ReadSharedReq_mshr_miss_latency::cpu0.data   1185991500                       # number of ReadSharedReq MSHR miss cycles
system.l2.ReadSharedReq_mshr_miss_latency::total   1185991500                       # number of ReadSharedReq MSHR miss cycles
system.l2.demand_mshr_miss_latency::cpu0.data   1185991500                       # number of demand (read+write) MSHR miss cycles
system.l2.demand_mshr_miss_latency::total   1185991500                       # number of demand (read+write) MSHR miss cycles
system.l2.overall_mshr_miss_latency::cpu0.data   1185991500                       # number of overall MSHR miss cycles
system.l2.overall_mshr_miss_latency::total   1185991500                       # number of overall MSHR miss cycles
system.l2.ReadSharedReq_mshr_miss_rate::cpu0.data     0.998737                       # mshr miss rate for ReadSharedReq accesses
system.l2.ReadSharedReq_mshr_miss_rate::total     0.998737                       # mshr miss rate for ReadSharedReq accesses
system.l2.demand_mshr_miss_rate::cpu0.data     0.998737                       # mshr miss rate for demand accesses
system.l2.demand_mshr_miss_rate::total       0.998737                       # mshr miss rate for demand accesses
system.l2.overall_mshr_miss_rate::cpu0.data     0.998737                       # mshr miss rate for overall accesses
system.l2.overall_mshr_miss_rate::total      0.998737                       # mshr miss rate for overall accesses
system.l2.ReadSharedReq_avg_mshr_miss_latency::cpu0.data 83297.619048                       # average ReadSharedReq mshr miss latency
system.l2.ReadSharedReq_avg_mshr_miss_latency::total 83297.619048                       # average ReadSharedReq mshr miss latency
system.l2.demand_avg_mshr_miss_latency::cpu0.data 83297.619048                       # average overall mshr miss latency
system.l2.demand_avg_mshr_miss_latency::total 83297.619048                       # average overall mshr miss latency
system.l2.overall_avg_mshr_miss_latency::cpu0.data 83297.619048                       # average overall mshr miss latency
system.l2.overall_avg_mshr_miss_latency::total 83297.619048                       # average overall mshr miss latency
system.membus.snoop_filter.tot_requests         28475                       # Total number of requests made to the snoop filter.
system.membus.snoop_filter.hit_single_requests        14237                       # Number of requests hitting in the snoop filter with a single holder of the requested data.
system.membus.snoop_filter.hit_multi_requests            0                       # Number of requests hitting in the snoop filter with multiple (>1) holders of the requested data.
system.membus.snoop_filter.tot_snoops               0                       # Total number of snoops made to the snoop filter.
system.membus.snoop_filter.hit_single_snoops            0                       # Number of snoops hitting in the snoop filter with a single holder of the requested data.
system.membus.snoop_filter.hit_multi_snoops            0                       # Number of snoops hitting in the snoop filter with multiple (>1) holders of the requested data.
system.membus.pwrStateResidencyTicks::UNDEFINED  15267344125                       # Cumulative time (in ticks) in various power states
system.membus.trans_dist::ReadResp              14237                       # Transaction distribution
system.membus.trans_dist::WritebackDirty        13449                       # Transaction distribution
system.membus.trans_dist::CleanEvict              788                       # Transaction distribution
system.membus.trans_dist::ReadSharedReq         14238                       # Transaction distribution
system.membus.pkt_count_system.l2.mem_side::system.mem_ctrls.port        42712                       # Packet count per connected master and slave (bytes)
system.membus.pkt_count_system.l2.mem_side::total        42712                       # Packet count per connected master and slave (bytes)
system.membus.pkt_count::total                  42712                       # Packet count per connected master and slave (bytes)
system.membus.pkt_size_system.l2.mem_side::system.mem_ctrls.port      1771904                       # Cumulative packet size per connected master and slave (bytes)
system.membus.pkt_size_system.l2.mem_side::total      1771904                       # Cumulative packet size per connected master and slave (bytes)
system.membus.pkt_size::total                 1771904                       # Cumulative packet size per connected master and slave (bytes)
system.membus.snoops                                0                       # Total snoops (count)
system.membus.snoopTraffic                          0                       # Total snoop traffic (bytes)
system.membus.snoop_fanout::samples             14238                       # Request fanout histogram
system.membus.snoop_fanout::mean                    0                       # Request fanout histogram
system.membus.snoop_fanout::stdev                   0                       # Request fanout histogram
system.membus.snoop_fanout::underflows              0      0.00%      0.00% # Request fanout histogram
system.membus.snoop_fanout::0                   14238    100.00%    100.00% # Request fanout histogram
system.membus.snoop_fanout::1                       0      0.00%    100.00% # Request fanout histogram
system.membus.snoop_fanout::overflows               0      0.00%    100.00% # Request fanout histogram
system.membus.snoop_fanout::min_value               0                       # Request fanout histogram
system.membus.snoop_fanout::max_value               0                       # Request fanout histogram
system.membus.snoop_fanout::total               14238                       # Request fanout histogram
system.membus.reqLayer8.occupancy            85850000                       # Layer occupancy (ticks)
system.membus.reqLayer8.utilization               0.6                       # Layer utilization (%)
system.membus.respLayer1.occupancy           75832000                       # Layer occupancy (ticks)
system.membus.respLayer1.utilization              0.5                       # Layer utilization (%)
system.tol2bus.snoop_filter.tot_requests        28511                       # Total number of requests made to the snoop filter.
system.tol2bus.snoop_filter.hit_single_requests        14255                       # Number of requests hitting in the snoop filter with a single holder of the requested data.
system.tol2bus.snoop_filter.hit_multi_requests            0                       # Number of requests hitting in the snoop filter with multiple (>1) holders of the requested data.
system.tol2bus.snoop_filter.tot_snoops              0                       # Total number of snoops made to the snoop filter.
system.tol2bus.snoop_filter.hit_single_snoops            0                       # Number of snoops hitting in the snoop filter with a single holder of the requested data.
system.tol2bus.snoop_filter.hit_multi_snoops            0                       # Number of snoops hitting in the snoop filter with multiple (>1) holders of the requested data.
system.tol2bus.pwrStateResidencyTicks::UNDEFINED  15267344125                       # Cumulative time (in ticks) in various power states
system.tol2bus.trans_dist::ReadResp             14255                       # Transaction distribution
system.tol2bus.trans_dist::WritebackDirty        26874                       # Transaction distribution
system.tol2bus.trans_dist::CleanEvict            1618                       # Transaction distribution
system.tol2bus.trans_dist::ReadSharedReq        14256                       # Transaction distribution
system.tol2bus.pkt_count_system.cpu0.dcache.mem_side::system.l2.cpu_side        42766                       # Packet count per connected master and slave (bytes)
system.tol2bus.pkt_count::total                 42766                       # Packet count per connected master and slave (bytes)
system.tol2bus.pkt_size_system.cpu0.dcache.mem_side::system.l2.cpu_side      1771520                       # Cumulative packet size per connected master and slave (bytes)
system.tol2bus.pkt_size::total                1771520                       # Cumulative packet size per connected master and slave (bytes)
system.tol2bus.snoops                           14237                       # Total snoops (count)
system.tol2bus.snoopTraffic                    860736                       # Total snoop traffic (bytes)
system.tol2bus.snoop_fanout::samples            28493                       # Request fanout histogram
system.tol2bus.snoop_fanout::mean                   0                       # Request fanout histogram
system.tol2bus.snoop_fanout::stdev                  0                       # Request fanout histogram
system.tol2bus.snoop_fanout::underflows             0      0.00%      0.00% # Request fanout histogram
system.tol2bus.snoop_fanout::0                  28493    100.00%    100.00% # Request fanout histogram
system.tol2bus.snoop_fanout::1                      0      0.00%    100.00% # Request fanout histogram
system.tol2bus.snoop_fanout::2                      0      0.00%    100.00% # Request fanout histogram
system.tol2bus.snoop_fanout::3                      0      0.00%    100.00% # Request fanout histogram
system.tol2bus.snoop_fanout::4                      0      0.00%    100.00% # Request fanout histogram
system.tol2bus.snoop_fanout::5                      0      0.00%    100.00% # Request fanout histogram
system.tol2bus.snoop_fanout::6                      0      0.00%    100.00% # Request fanout histogram
system.tol2bus.snoop_fanout::7                      0      0.00%    100.00% # Request fanout histogram
system.tol2bus.snoop_fanout::8                      0      0.00%    100.00% # Request fanout histogram
system.tol2bus.snoop_fanout::9                      0      0.00%    100.00% # Request fanout histogram
system.tol2bus.snoop_fanout::10                     0      0.00%    100.00% # Request fanout histogram
system.tol2bus.snoop_fanout::11                     0      0.00%    100.00% # Request fanout histogram
system.tol2bus.snoop_fanout::12                     0      0.00%    100.00% # Request fanout histogram
system.tol2bus.snoop_fanout::13                     0      0.00%    100.00% # Request fanout histogram
system.tol2bus.snoop_fanout::14                     0      0.00%    100.00% # Request fanout histogram
system.tol2bus.snoop_fanout::15                     0      0.00%    100.00% # Request fanout histogram
system.tol2bus.snoop_fanout::16                     0      0.00%    100.00% # Request fanout histogram
system.tol2bus.snoop_fanout::overflows              0      0.00%    100.00% # Request fanout histogram
system.tol2bus.snoop_fanout::min_value              0                       # Request fanout histogram
system.tol2bus.snoop_fanout::max_value              0                       # Request fanout histogram
system.tol2bus.snoop_fanout::total              28493                       # Request fanout histogram
system.tol2bus.reqLayer0.occupancy           27680500                       # Layer occupancy (ticks)
system.tol2bus.reqLayer0.utilization              0.2                       # Layer utilization (%)
system.tol2bus.respLayer1.occupancy          21382500                       # Layer occupancy (ticks)
system.tol2bus.respLayer1.utilization             0.1                       # Layer utilization (%)

---------- End Simulation Statistics   ----------
