
---------- Begin Simulation Statistics ----------
sim_seconds                                  0.015267                       # Number of seconds simulated
sim_ticks                                 15267344125                       # Number of ticks simulated
final_tick                               3221409610375                       # Number of ticks from beginning of simulation (restored from checkpoints and never reset)
sim_freq                                 1000000000000                       # Frequency of simulated ticks
host_inst_rate                               93345148                       # Simulator instruction rate (inst/s)
host_op_rate                                173054464                       # Simulator op (including micro ops) rate (op/s)
host_tick_rate                              253795047                       # Simulator tick rate (ticks/s)
host_mem_usage                                2332528                       # Number of bytes of host memory used
host_seconds                                    60.16                       # Real time elapsed on the host
sim_insts                                  5615287152                       # Number of instructions simulated
sim_ops                                   10410296469                       # Number of ops (including micro ops) simulated
system.voltage_domain.voltage                       1                       # Voltage in Volts
system.clk_domain.clock                          1000                       # Clock period in ticks
system.mem_ctrls.pwrStateResidencyTicks::UNDEFINED  15267344125                       # Cumulative time (in ticks) in various power states
system.mem_ctrls.bytes_read::cpu0.inst             64                       # Number of bytes read from this memory
system.mem_ctrls.bytes_read::cpu0.data       10292416                       # Number of bytes read from this memory
system.mem_ctrls.bytes_read::total           10292480                       # Number of bytes read from this memory
system.mem_ctrls.bytes_inst_read::cpu0.inst           64                       # Number of instructions bytes read from this memory
system.mem_ctrls.bytes_inst_read::total            64                       # Number of instructions bytes read from this memory
system.mem_ctrls.bytes_written::writebacks        50816                       # Number of bytes written to this memory
system.mem_ctrls.bytes_written::total           50816                       # Number of bytes written to this memory
system.mem_ctrls.num_reads::cpu0.inst               1                       # Number of read requests responded to by this memory
system.mem_ctrls.num_reads::cpu0.data          160819                       # Number of read requests responded to by this memory
system.mem_ctrls.num_reads::total              160820                       # Number of read requests responded to by this memory
system.mem_ctrls.num_writes::writebacks           794                       # Number of write requests responded to by this memory
system.mem_ctrls.num_writes::total                794                       # Number of write requests responded to by this memory
system.mem_ctrls.bw_read::cpu0.inst              4192                       # Total read bandwidth from this memory (bytes/s)
system.mem_ctrls.bw_read::cpu0.data         674145805                       # Total read bandwidth from this memory (bytes/s)
system.mem_ctrls.bw_read::total             674149997                       # Total read bandwidth from this memory (bytes/s)
system.mem_ctrls.bw_inst_read::cpu0.inst         4192                       # Instruction read bandwidth from this memory (bytes/s)
system.mem_ctrls.bw_inst_read::total             4192                       # Instruction read bandwidth from this memory (bytes/s)
system.mem_ctrls.bw_write::writebacks         3328411                       # Write bandwidth from this memory (bytes/s)
system.mem_ctrls.bw_write::total              3328411                       # Write bandwidth from this memory (bytes/s)
system.mem_ctrls.bw_total::writebacks         3328411                       # Total bandwidth to/from this memory (bytes/s)
system.mem_ctrls.bw_total::cpu0.inst             4192                       # Total bandwidth to/from this memory (bytes/s)
system.mem_ctrls.bw_total::cpu0.data        674145805                       # Total bandwidth to/from this memory (bytes/s)
system.mem_ctrls.bw_total::total            677478409                       # Total bandwidth to/from this memory (bytes/s)
system.mem_ctrls.readReqs                      160820                       # Number of read requests accepted
system.mem_ctrls.writeReqs                        794                       # Number of write requests accepted
system.mem_ctrls.readBursts                    160820                       # Number of DRAM read bursts, including those serviced by the write queue
system.mem_ctrls.writeBursts                      794                       # Number of DRAM write bursts, including those merged in the write queue
system.mem_ctrls.bytesReadDRAM               10285440                       # Total number of bytes read from DRAM
system.mem_ctrls.bytesReadWrQ                    7040                       # Total number of bytes read from write queue
system.mem_ctrls.bytesWritten                   51456                       # Total number of bytes written to DRAM
system.mem_ctrls.bytesReadSys                10292480                       # Total read bytes from the system interface side
system.mem_ctrls.bytesWrittenSys                50816                       # Total written bytes from the system interface side
system.mem_ctrls.servicedByWrQ                    110                       # Number of DRAM read bursts serviced by the write queue
system.mem_ctrls.mergedWrBursts                     0                       # Number of DRAM write bursts merged with an existing one
system.mem_ctrls.neitherReadNorWriteReqs            0                       # Number of requests that are neither read nor write
system.mem_ctrls.perBankRdBursts::0              9735                       # Per bank write bursts
system.mem_ctrls.perBankRdBursts::1              9691                       # Per bank write bursts
system.mem_ctrls.perBankRdBursts::2              9613                       # Per bank write bursts
system.mem_ctrls.perBankRdBursts::3             10776                       # Per bank write bursts
system.mem_ctrls.perBankRdBursts::4             10825                       # Per bank write bursts
system.mem_ctrls.perBankRdBursts::5             10457                       # Per bank write bursts
system.mem_ctrls.perBankRdBursts::6             10399                       # Per bank write bursts
system.mem_ctrls.perBankRdBursts::7              9812                       # Per bank write bursts
system.mem_ctrls.perBankRdBursts::8              9936                       # Per bank write bursts
system.mem_ctrls.perBankRdBursts::9              9800                       # Per bank write bursts
system.mem_ctrls.perBankRdBursts::10             9813                       # Per bank write bursts
system.mem_ctrls.perBankRdBursts::11             9837                       # Per bank write bursts
system.mem_ctrls.perBankRdBursts::12            10121                       # Per bank write bursts
system.mem_ctrls.perBankRdBursts::13            10213                       # Per bank write bursts
system.mem_ctrls.perBankRdBursts::14             9901                       # Per bank write bursts
system.mem_ctrls.perBankRdBursts::15             9781                       # Per bank write bursts
system.mem_ctrls.perBankWrBursts::0               123                       # Per bank write bursts
system.mem_ctrls.perBankWrBursts::1               124                       # Per bank write bursts
system.mem_ctrls.perBankWrBursts::2               125                       # Per bank write bursts
system.mem_ctrls.perBankWrBursts::3               192                       # Per bank write bursts
system.mem_ctrls.perBankWrBursts::4                53                       # Per bank write bursts
system.mem_ctrls.perBankWrBursts::5                 0                       # Per bank write bursts
system.mem_ctrls.perBankWrBursts::6                 0                       # Per bank write bursts
system.mem_ctrls.perBankWrBursts::7                 0                       # Per bank write bursts
system.mem_ctrls.perBankWrBursts::8                56                       # Per bank write bursts
system.mem_ctrls.perBankWrBursts::9                 1                       # Per bank write bursts
system.mem_ctrls.perBankWrBursts::10                1                       # Per bank write bursts
system.mem_ctrls.perBankWrBursts::11                2                       # Per bank write bursts
system.mem_ctrls.perBankWrBursts::12               19                       # Per bank write bursts
system.mem_ctrls.perBankWrBursts::13               16                       # Per bank write bursts
system.mem_ctrls.perBankWrBursts::14               32                       # Per bank write bursts
system.mem_ctrls.perBankWrBursts::15               60                       # Per bank write bursts
system.mem_ctrls.numRdRetry                         0                       # Number of times read queue was full causing retry
system.mem_ctrls.numWrRetry                         0                       # Number of times write queue was full causing retry
system.mem_ctrls.totGap                   15267325000                       # Total gap between requests
system.mem_ctrls.readPktSize::0                     0                       # Read request sizes (log2)
system.mem_ctrls.readPktSize::1                     0                       # Read request sizes (log2)
system.mem_ctrls.readPktSize::2                     0                       # Read request sizes (log2)
system.mem_ctrls.readPktSize::3                     0                       # Read request sizes (log2)
system.mem_ctrls.readPktSize::4                     0                       # Read request sizes (log2)
system.mem_ctrls.readPktSize::5                     0                       # Read request sizes (log2)
system.mem_ctrls.readPktSize::6                160820                       # Read request sizes (log2)
system.mem_ctrls.writePktSize::0                    0                       # Write request sizes (log2)
system.mem_ctrls.writePktSize::1                    0                       # Write request sizes (log2)
system.mem_ctrls.writePktSize::2                    0                       # Write request sizes (log2)
system.mem_ctrls.writePktSize::3                    0                       # Write request sizes (log2)
system.mem_ctrls.writePktSize::4                    0                       # Write request sizes (log2)
system.mem_ctrls.writePktSize::5                    0                       # Write request sizes (log2)
system.mem_ctrls.writePktSize::6                  794                       # Write request sizes (log2)
system.mem_ctrls.rdQLenPdf::0                  124402                       # What read queue length does an incoming req see
system.mem_ctrls.rdQLenPdf::1                   33593                       # What read queue length does an incoming req see
system.mem_ctrls.rdQLenPdf::2                    2607                       # What read queue length does an incoming req see
system.mem_ctrls.rdQLenPdf::3                     108                       # What read queue length does an incoming req see
system.mem_ctrls.rdQLenPdf::4                       0                       # What read queue length does an incoming req see
system.mem_ctrls.rdQLenPdf::5                       0                       # What read queue length does an incoming req see
system.mem_ctrls.rdQLenPdf::6                       0                       # What read queue length does an incoming req see
system.mem_ctrls.rdQLenPdf::7                       0                       # What read queue length does an incoming req see
system.mem_ctrls.rdQLenPdf::8                       0                       # What read queue length does an incoming req see
system.mem_ctrls.rdQLenPdf::9                       0                       # What read queue length does an incoming req see
system.mem_ctrls.rdQLenPdf::10                      0                       # What read queue length does an incoming req see
system.mem_ctrls.rdQLenPdf::11                      0                       # What read queue length does an incoming req see
system.mem_ctrls.rdQLenPdf::12                      0                       # What read queue length does an incoming req see
system.mem_ctrls.rdQLenPdf::13                      0                       # What read queue length does an incoming req see
system.mem_ctrls.rdQLenPdf::14                      0                       # What read queue length does an incoming req see
system.mem_ctrls.rdQLenPdf::15                      0                       # What read queue length does an incoming req see
system.mem_ctrls.rdQLenPdf::16                      0                       # What read queue length does an incoming req see
system.mem_ctrls.rdQLenPdf::17                      0                       # What read queue length does an incoming req see
system.mem_ctrls.rdQLenPdf::18                      0                       # What read queue length does an incoming req see
system.mem_ctrls.rdQLenPdf::19                      0                       # What read queue length does an incoming req see
system.mem_ctrls.rdQLenPdf::20                      0                       # What read queue length does an incoming req see
system.mem_ctrls.rdQLenPdf::21                      0                       # What read queue length does an incoming req see
system.mem_ctrls.rdQLenPdf::22                      0                       # What read queue length does an incoming req see
system.mem_ctrls.rdQLenPdf::23                      0                       # What read queue length does an incoming req see
system.mem_ctrls.rdQLenPdf::24                      0                       # What read queue length does an incoming req see
system.mem_ctrls.rdQLenPdf::25                      0                       # What read queue length does an incoming req see
system.mem_ctrls.rdQLenPdf::26                      0                       # What read queue length does an incoming req see
system.mem_ctrls.rdQLenPdf::27                      0                       # What read queue length does an incoming req see
system.mem_ctrls.rdQLenPdf::28                      0                       # What read queue length does an incoming req see
system.mem_ctrls.rdQLenPdf::29                      0                       # What read queue length does an incoming req see
system.mem_ctrls.rdQLenPdf::30                      0                       # What read queue length does an incoming req see
system.mem_ctrls.rdQLenPdf::31                      0                       # What read queue length does an incoming req see
system.mem_ctrls.wrQLenPdf::0                       0                       # What write queue length does an incoming req see
system.mem_ctrls.wrQLenPdf::1                       0                       # What write queue length does an incoming req see
system.mem_ctrls.wrQLenPdf::2                       0                       # What write queue length does an incoming req see
system.mem_ctrls.wrQLenPdf::3                       0                       # What write queue length does an incoming req see
system.mem_ctrls.wrQLenPdf::4                       0                       # What write queue length does an incoming req see
system.mem_ctrls.wrQLenPdf::5                       0                       # What write queue length does an incoming req see
system.mem_ctrls.wrQLenPdf::6                       0                       # What write queue length does an incoming req see
system.mem_ctrls.wrQLenPdf::7                       0                       # What write queue length does an incoming req see
system.mem_ctrls.wrQLenPdf::8                       0                       # What write queue length does an incoming req see
system.mem_ctrls.wrQLenPdf::9                       0                       # What write queue length does an incoming req see
system.mem_ctrls.wrQLenPdf::10                      0                       # What write queue length does an incoming req see
system.mem_ctrls.wrQLenPdf::11                      0                       # What write queue length does an incoming req see
system.mem_ctrls.wrQLenPdf::12                      0                       # What write queue length does an incoming req see
system.mem_ctrls.wrQLenPdf::13                      0                       # What write queue length does an incoming req see
system.mem_ctrls.wrQLenPdf::14                      0                       # What write queue length does an incoming req see
system.mem_ctrls.wrQLenPdf::15                      2                       # What write queue length does an incoming req see
system.mem_ctrls.wrQLenPdf::16                      2                       # What write queue length does an incoming req see
system.mem_ctrls.wrQLenPdf::17                     50                       # What write queue length does an incoming req see
system.mem_ctrls.wrQLenPdf::18                     50                       # What write queue length does an incoming req see
system.mem_ctrls.wrQLenPdf::19                     50                       # What write queue length does an incoming req see
system.mem_ctrls.wrQLenPdf::20                     50                       # What write queue length does an incoming req see
system.mem_ctrls.wrQLenPdf::21                     49                       # What write queue length does an incoming req see
system.mem_ctrls.wrQLenPdf::22                     49                       # What write queue length does an incoming req see
system.mem_ctrls.wrQLenPdf::23                     49                       # What write queue length does an incoming req see
system.mem_ctrls.wrQLenPdf::24                     49                       # What write queue length does an incoming req see
system.mem_ctrls.wrQLenPdf::25                     49                       # What write queue length does an incoming req see
system.mem_ctrls.wrQLenPdf::26                     49                       # What write queue length does an incoming req see
system.mem_ctrls.wrQLenPdf::27                     49                       # What write queue length does an incoming req see
system.mem_ctrls.wrQLenPdf::28                     49                       # What write queue length does an incoming req see
system.mem_ctrls.wrQLenPdf::29                     49                       # What write queue length does an incoming req see
system.mem_ctrls.wrQLenPdf::30                     49                       # What write queue length does an incoming req see
system.mem_ctrls.wrQLenPdf::31                     50                       # What write queue length does an incoming req see
system.mem_ctrls.wrQLenPdf::32                     50                       # What write queue length does an incoming req see
system.mem_ctrls.wrQLenPdf::33                      0                       # What write queue length does an incoming req see
system.mem_ctrls.wrQLenPdf::34                      0                       # What write queue length does an incoming req see
system.mem_ctrls.wrQLenPdf::35                      0                       # What write queue length does an incoming req see
system.mem_ctrls.wrQLenPdf::36                      0                       # What write queue length does an incoming req see
system.mem_ctrls.wrQLenPdf::37                      0                       # What write queue length does an incoming req see
system.mem_ctrls.wrQLenPdf::38                      0                       # What write queue length does an incoming req see
system.mem_ctrls.wrQLenPdf::39                      0                       # What write queue length does an incoming req see
system.mem_ctrls.wrQLenPdf::40                      0                       # What write queue length does an incoming req see
system.mem_ctrls.wrQLenPdf::41                      0                       # What write queue length does an incoming req see
system.mem_ctrls.wrQLenPdf::42                      0                       # What write queue length does an incoming req see
system.mem_ctrls.wrQLenPdf::43                      0                       # What write queue length does an incoming req see
system.mem_ctrls.wrQLenPdf::44                      0                       # What write queue length does an incoming req see
system.mem_ctrls.wrQLenPdf::45                      0                       # What write queue length does an incoming req see
system.mem_ctrls.wrQLenPdf::46                      0                       # What write queue length does an incoming req see
system.mem_ctrls.wrQLenPdf::47                      0                       # What write queue length does an incoming req see
system.mem_ctrls.wrQLenPdf::48                      0                       # What write queue length does an incoming req see
system.mem_ctrls.wrQLenPdf::49                      0                       # What write queue length does an incoming req see
system.mem_ctrls.wrQLenPdf::50                      0                       # What write queue length does an incoming req see
system.mem_ctrls.wrQLenPdf::51                      0                       # What write queue length does an incoming req see
system.mem_ctrls.wrQLenPdf::52                      0                       # What write queue length does an incoming req see
system.mem_ctrls.wrQLenPdf::53                      0                       # What write queue length does an incoming req see
system.mem_ctrls.wrQLenPdf::54                      0                       # What write queue length does an incoming req see
system.mem_ctrls.wrQLenPdf::55                      0                       # What write queue length does an incoming req see
system.mem_ctrls.wrQLenPdf::56                      0                       # What write queue length does an incoming req see
system.mem_ctrls.wrQLenPdf::57                      0                       # What write queue length does an incoming req see
system.mem_ctrls.wrQLenPdf::58                      0                       # What write queue length does an incoming req see
system.mem_ctrls.wrQLenPdf::59                      0                       # What write queue length does an incoming req see
system.mem_ctrls.wrQLenPdf::60                      0                       # What write queue length does an incoming req see
system.mem_ctrls.wrQLenPdf::61                      0                       # What write queue length does an incoming req see
system.mem_ctrls.wrQLenPdf::62                      0                       # What write queue length does an incoming req see
system.mem_ctrls.wrQLenPdf::63                      0                       # What write queue length does an incoming req see
system.mem_ctrls.bytesPerActivate::samples        92383                       # Bytes accessed per row activation
system.mem_ctrls.bytesPerActivate::mean    111.885520                       # Bytes accessed per row activation
system.mem_ctrls.bytesPerActivate::gmean    97.343347                       # Bytes accessed per row activation
system.mem_ctrls.bytesPerActivate::stdev    67.496575                       # Bytes accessed per row activation
system.mem_ctrls.bytesPerActivate::0-127        50043     54.17%     54.17% # Bytes accessed per row activation
system.mem_ctrls.bytesPerActivate::128-255        35922     38.88%     93.05% # Bytes accessed per row activation
system.mem_ctrls.bytesPerActivate::256-383         5703      6.17%     99.23% # Bytes accessed per row activation
system.mem_ctrls.bytesPerActivate::384-511          609      0.66%     99.89% # Bytes accessed per row activation
system.mem_ctrls.bytesPerActivate::512-639           72      0.08%     99.96% # Bytes accessed per row activation
system.mem_ctrls.bytesPerActivate::640-767           16      0.02%     99.98% # Bytes accessed per row activation
system.mem_ctrls.bytesPerActivate::768-895            7      0.01%     99.99% # Bytes accessed per row activation
system.mem_ctrls.bytesPerActivate::896-1023            7      0.01%    100.00% # Bytes accessed per row activation
system.mem_ctrls.bytesPerActivate::1024-1151            4      0.00%    100.00% # Bytes accessed per row activation
system.mem_ctrls.bytesPerActivate::total        92383                       # Bytes accessed per row activation
system.mem_ctrls.rdPerTurnAround::samples           50                       # Reads before turning the bus around for writes
system.mem_ctrls.rdPerTurnAround::mean    3218.680000                       # Reads before turning the bus around for writes
system.mem_ctrls.rdPerTurnAround::gmean   3115.175978                       # Reads before turning the bus around for writes
system.mem_ctrls.rdPerTurnAround::stdev    832.258776                       # Reads before turning the bus around for writes
system.mem_ctrls.rdPerTurnAround::1536-1791            1      2.00%      2.00% # Reads before turning the bus around for writes
system.mem_ctrls.rdPerTurnAround::1792-2047            3      6.00%      8.00% # Reads before turning the bus around for writes
system.mem_ctrls.rdPerTurnAround::2048-2303            2      4.00%     12.00% # Reads before turning the bus around for writes
system.mem_ctrls.rdPerTurnAround::2304-2559            5     10.00%     22.00% # Reads before turning the bus around for writes
system.mem_ctrls.rdPerTurnAround::2560-2815            6     12.00%     34.00% # Reads before turning the bus around for writes
system.mem_ctrls.rdPerTurnAround::2816-3071            6     12.00%     46.00% # Reads before turning the bus around for writes
system.mem_ctrls.rdPerTurnAround::3072-3327            4      8.00%     54.00% # Reads before turning the bus around for writes
system.mem_ctrls.rdPerTurnAround::3328-3583            9     18.00%     72.00% # Reads before turning the bus around for writes
system.mem_ctrls.rdPerTurnAround::3584-3839            5     10.00%     82.00% # Reads before turning the bus around for writes
system.mem_ctrls.rdPerTurnAround::3840-4095            4      8.00%     90.00% # Reads before turning the bus around for writes
system.mem_ctrls.rdPerTurnAround::4096-4351            1      2.00%     92.00% # Reads before turning the bus around for writes
system.mem_ctrls.rdPerTurnAround::4352-4607            1      2.00%     94.00% # Reads before turning the bus around for writes
system.mem_ctrls.rdPerTurnAround::4864-5119            1      2.00%     96.00% # Reads before turning the bus around for writes
system.mem_ctrls.rdPerTurnAround::5120-5375            1      2.00%     98.00% # Reads before turning the bus around for writes
system.mem_ctrls.rdPerTurnAround::5376-5631            1      2.00%    100.00% # Reads before turning the bus around for writes
system.mem_ctrls.rdPerTurnAround::total            50                       # Reads before turning the bus around for writes
system.mem_ctrls.wrPerTurnAround::samples           50                       # Writes before turning the bus around for reads
system.mem_ctrls.wrPerTurnAround::mean      16.080000                       # Writes before turning the bus around for reads
system.mem_ctrls.wrPerTurnAround::gmean     16.075559                       # Writes before turning the bus around for reads
system.mem_ctrls.wrPerTurnAround::stdev      0.395897                       # Writes before turning the bus around for reads
system.mem_ctrls.wrPerTurnAround::16               48     96.00%     96.00% # Writes before turning the bus around for reads
system.mem_ctrls.wrPerTurnAround::18                2      4.00%    100.00% # Writes before turning the bus around for reads
system.mem_ctrls.wrPerTurnAround::total            50                       # Writes before turning the bus around for reads
system.mem_ctrls.totQLat                   4124112750                       # Total ticks spent queuing
system.mem_ctrls.totMemAccLat              7137425250                       # Total ticks spent from burst creation until serviced by the DRAM
system.mem_ctrls.totBusLat                  803550000                       # Total ticks spent in databus transfers
system.mem_ctrls.avgQLat                     25661.83                       # Average queueing delay per DRAM burst
system.mem_ctrls.avgBusLat                    5000.00                       # Average bus latency per DRAM burst
system.mem_ctrls.avgMemAccLat                44411.83                       # Average memory access latency per DRAM burst
system.mem_ctrls.avgRdBW                       673.69                       # Average DRAM read bandwidth in MiByte/s
system.mem_ctrls.avgWrBW                         3.37                       # Average achieved write bandwidth in MiByte/s
system.mem_ctrls.avgRdBWSys                    674.15                       # Average system read bandwidth in MiByte/s
system.mem_ctrls.avgWrBWSys                      3.33                       # Average system write bandwidth in MiByte/s
system.mem_ctrls.peakBW                      12800.00                       # Theoretical peak bandwidth in MiByte/s
system.mem_ctrls.busUtil                         5.29                       # Data bus utilization in percentage
system.mem_ctrls.busUtilRead                     5.26                       # Data bus utilization in percentage for reads
system.mem_ctrls.busUtilWrite                    0.03                       # Data bus utilization in percentage for writes
system.mem_ctrls.avgRdQLen                       1.26                       # Average read queue length when enqueuing
system.mem_ctrls.avgWrQLen                      25.49                       # Average write queue length when enqueuing
system.mem_ctrls.readRowHits                    68494                       # Number of row buffer hits during reads
system.mem_ctrls.writeRowHits                     637                       # Number of row buffer hits during writes
system.mem_ctrls.readRowHitRate                 42.62                       # Row buffer hit rate for reads
system.mem_ctrls.writeRowHitRate                80.23                       # Row buffer hit rate for writes
system.mem_ctrls.avgGap                      94467.84                       # Average gap between requests
system.mem_ctrls.pageHitRate                    42.80                       # Row buffer hit rate, read and write combined
system.mem_ctrls_0.actEnergy                333830700                       # Energy for activate commands per rank (pJ)
system.mem_ctrls_0.preEnergy                177435225                       # Energy for precharge commands per rank (pJ)
system.mem_ctrls_0.readEnergy               580539120                       # Energy for read commands per rank (pJ)
system.mem_ctrls_0.writeEnergy                3220740                       # Energy for write commands per rank (pJ)
system.mem_ctrls_0.refreshEnergy         1207152960.000000                       # Energy for refresh commands per rank (pJ)
system.mem_ctrls_0.actBackEnergy           1471575840                       # Energy for active background per rank (pJ)
system.mem_ctrls_0.preBackEnergy             25070880                       # Energy for precharge background per rank (pJ)
system.mem_ctrls_0.actPowerDownEnergy      5230205430                       # Energy for active power-down per rank (pJ)
system.mem_ctrls_0.prePowerDownEnergy       192513120                       # Energy for precharge power-down per rank (pJ)
system.mem_ctrls_0.selfRefreshEnergy          3128460                       # Energy for self refresh per rank (pJ)
system.mem_ctrls_0.totalEnergy             9224672475                       # Total energy per rank (pJ)
system.mem_ctrls_0.averagePower            604.209377                       # Core power per rank (mW)
system.mem_ctrls_0.totalIdleTime          11974398250                       # Total Idle time Per DRAM Rank
system.mem_ctrls_0.memoryStateTime::IDLE     11064000                       # Time in different power states
system.mem_ctrls_0.memoryStateTime::REF     510664000                       # Time in different power states
system.mem_ctrls_0.memoryStateTime::SREF      3831000                       # Time in different power states
system.mem_ctrls_0.memoryStateTime::PRE_PDN    501523000                       # Time in different power states
system.mem_ctrls_0.memoryStateTime::ACT    2771167250                       # Time in different power states
system.mem_ctrls_0.memoryStateTime::ACT_PDN  11469094875                       # Time in different power states
system.mem_ctrls_1.actEnergy                325783920                       # Energy for activate commands per rank (pJ)
system.mem_ctrls_1.preEnergy                173158260                       # Energy for precharge commands per rank (pJ)
system.mem_ctrls_1.readEnergy               566930280                       # Energy for read commands per rank (pJ)
system.mem_ctrls_1.writeEnergy                 976140                       # Energy for write commands per rank (pJ)
system.mem_ctrls_1.refreshEnergy         1206538320.000000                       # Energy for refresh commands per rank (pJ)
system.mem_ctrls_1.actBackEnergy           1438188090                       # Energy for active background per rank (pJ)
system.mem_ctrls_1.preBackEnergy             24933120                       # Energy for precharge background per rank (pJ)
system.mem_ctrls_1.actPowerDownEnergy      5231613900                       # Energy for active power-down per rank (pJ)
system.mem_ctrls_1.prePowerDownEnergy       220129440                       # Energy for precharge power-down per rank (pJ)
system.mem_ctrls_1.selfRefreshEnergy     2233320.000000                       # Energy for self refresh per rank (pJ)
system.mem_ctrls_1.totalEnergy             9190484790                       # Total energy per rank (pJ)
system.mem_ctrls_1.averagePower            601.970108                       # Core power per rank (mW)
system.mem_ctrls_1.totalIdleTime          12047476000                       # Total Idle time Per DRAM Rank
system.mem_ctrls_1.memoryStateTime::IDLE     10686000                       # Time in different power states
system.mem_ctrls_1.memoryStateTime::REF     510404000                       # Time in different power states
system.mem_ctrls_1.memoryStateTime::SREF      2402250                       # Time in different power states
system.mem_ctrls_1.memoryStateTime::PRE_PDN    573374250                       # Time in different power states
system.mem_ctrls_1.memoryStateTime::ACT    2698512500                       # Time in different power states
system.mem_ctrls_1.memoryStateTime::ACT_PDN  11471965125                       # Time in different power states
system.pwrStateResidencyTicks::UNDEFINED  15267344125                       # Cumulative time (in ticks) in various power states
system.cpu0.branchPred.lookups                2670839                       # Number of BP lookups
system.cpu0.branchPred.condPredicted          2670839                       # Number of conditional branches predicted
system.cpu0.branchPred.condIncorrect           124566                       # Number of conditional branches incorrect
system.cpu0.branchPred.BTBLookups             2106874                       # Number of BTB lookups
system.cpu0.branchPred.BTBHits                      0                       # Number of BTB hits
system.cpu0.branchPred.BTBCorrect                   0                       # Number of correct BTB predictions (this stat may not work properly.
system.cpu0.branchPred.BTBHitPct             0.000000                       # BTB Hit Percentage
system.cpu0.branchPred.usedRAS                  91981                       # Number of times the RAS was used to get a target.
system.cpu0.branchPred.RASInCorrect             13621                       # Number of incorrect RAS predictions.
system.cpu0.branchPred.indirectLookups        2106874                       # Number of indirect predictor lookups.
system.cpu0.branchPred.indirectHits           1110164                       # Number of indirect target hits.
system.cpu0.branchPred.indirectMisses          996710                       # Number of indirect misses.
system.cpu0.branchPredindirectMispredicted        44383                       # Number of mispredicted indirect branches.
system.cpu_voltage_domain.voltage                   1                       # Voltage in Volts
system.cpu_clk_domain.clock                       500                       # Clock period in ticks
system.cpu0.dtb.walker.pwrStateResidencyTicks::UNDEFINED  15267344125                       # Cumulative time (in ticks) in various power states
system.cpu0.dtb.rdAccesses                    1291891                       # TLB accesses on read requests
system.cpu0.dtb.wrAccesses                     112408                       # TLB accesses on write requests
system.cpu0.dtb.rdMisses                       247870                       # TLB misses on read requests
system.cpu0.dtb.wrMisses                         1974                       # TLB misses on write requests
system.cpu0.apic_clk_domain.clock                8000                       # Clock period in ticks
system.cpu0.interrupts.pwrStateResidencyTicks::UNDEFINED  15267344125                       # Cumulative time (in ticks) in various power states
system.cpu0.itb.walker.pwrStateResidencyTicks::UNDEFINED  15267344125                       # Cumulative time (in ticks) in various power states
system.cpu0.itb.rdAccesses                          0                       # TLB accesses on read requests
system.cpu0.itb.wrAccesses                    2183564                       # TLB accesses on write requests
system.cpu0.itb.rdMisses                            0                       # TLB misses on read requests
system.cpu0.itb.wrMisses                         9721                       # TLB misses on write requests
system.cpu0.workload.numSyscalls                    0                       # Number of system calls
system.cpu0.pwrStateResidencyTicks::ON    15267344125                       # Cumulative time (in ticks) in various power states
system.cpu0.numCycles                        30534688                       # number of cpu cycles simulated
system.cpu0.numWorkItemsStarted                     0                       # number of work items this cpu started
system.cpu0.numWorkItemsCompleted                   0                       # number of work items this cpu completed
system.cpu0.fetch.icacheStallCycles           2239554                       # Number of cycles fetch is stalled on an Icache miss
system.cpu0.fetch.Insts                       7957383                       # Number of instructions fetch has processed
system.cpu0.fetch.Branches                    2670839                       # Number of branches that fetch encountered
system.cpu0.fetch.predictedBranches           1202145                       # Number of branches that fetch has predicted taken
system.cpu0.fetch.Cycles                     28028305                       # Number of cycles fetch has run and was not squashing or blocked
system.cpu0.fetch.SquashCycles                 255228                       # Number of cycles fetch has spent squashing
system.cpu0.fetch.TlbCycles                      1761                       # Number of cycles fetch has spent waiting for tlb
system.cpu0.fetch.MiscStallCycles                2108                       # Number of cycles fetch has spent waiting on interrupts, or bad addresses, or out of MSHRs
system.cpu0.fetch.PendingTrapStallCycles        80951                       # Number of stall cycles due to pending traps
system.cpu0.fetch.CacheLines                  2173843                       # Number of cache lines fetched
system.cpu0.fetch.IcacheSquashes                18718                       # Number of outstanding Icache misses that were squashed
system.cpu0.fetch.ItlbSquashes                      7                       # Number of outstanding ITLB misses that were squashed
system.cpu0.fetch.rateDist::samples          30480293                       # Number of instructions fetched each cycle (Total)
system.cpu0.fetch.rateDist::mean             0.526208                       # Number of instructions fetched each cycle (Total)
system.cpu0.fetch.rateDist::stdev            1.804545                       # Number of instructions fetched each cycle (Total)
system.cpu0.fetch.rateDist::underflows              0      0.00%      0.00% # Number of instructions fetched each cycle (Total)
system.cpu0.fetch.rateDist::0                27440720     90.03%     90.03% # Number of instructions fetched each cycle (Total)
system.cpu0.fetch.rateDist::1                   39140      0.13%     90.16% # Number of instructions fetched each cycle (Total)
system.cpu0.fetch.rateDist::2                 1036994      3.40%     93.56% # Number of instructions fetched each cycle (Total)
system.cpu0.fetch.rateDist::3                   52628      0.17%     93.73% # Number of instructions fetched each cycle (Total)
system.cpu0.fetch.rateDist::4                  210736      0.69%     94.42% # Number of instructions fetched each cycle (Total)
system.cpu0.fetch.rateDist::5                  120058      0.39%     94.82% # Number of instructions fetched each cycle (Total)
system.cpu0.fetch.rateDist::6                  135613      0.44%     95.26% # Number of instructions fetched each cycle (Total)
system.cpu0.fetch.rateDist::7                   44175      0.14%     95.41% # Number of instructions fetched each cycle (Total)
system.cpu0.fetch.rateDist::8                 1400229      4.59%    100.00% # Number of instructions fetched each cycle (Total)
system.cpu0.fetch.rateDist::overflows               0      0.00%    100.00% # Number of instructions fetched each cycle (Total)
system.cpu0.fetch.rateDist::min_value               0                       # Number of instructions fetched each cycle (Total)
system.cpu0.fetch.rateDist::max_value               8                       # Number of instructions fetched each cycle (Total)
system.cpu0.fetch.rateDist::total            30480293                       # Number of instructions fetched each cycle (Total)
system.cpu0.fetch.branchRate                 0.087469                       # Number of branch fetches per cycle
system.cpu0.fetch.rate                       0.260601                       # Number of inst fetches per cycle
system.cpu0.decode.IdleCycles                 1180936                       # Number of cycles decode is idle
system.cpu0.decode.BlockedCycles             27110050                       # Number of cycles decode is blocked
system.cpu0.decode.RunCycles                  1580897                       # Number of cycles decode is running
system.cpu0.decode.UnblockCycles               480796                       # Number of cycles decode is unblocking
system.cpu0.decode.SquashCycles                127614                       # Number of cycles decode is squashing
system.cpu0.decode.DecodedInsts              13386999                       # Number of instructions handled by decode
system.cpu0.rename.SquashCycles                127614                       # Number of cycles rename is squashing
system.cpu0.rename.IdleCycles                 1350088                       # Number of cycles rename is idle
system.cpu0.rename.BlockCycles               25332760                       # Number of cycles rename is blocking
system.cpu0.rename.serializeStallCycles         36087                       # count of cycles rename stalled for serializing inst
system.cpu0.rename.RunCycles                  1786159                       # Number of cycles rename is running
system.cpu0.rename.UnblockCycles              1847585                       # Number of cycles rename is unblocking
system.cpu0.rename.RenamedInsts              12812252                       # Number of instructions processed by rename
system.cpu0.rename.ROBFullEvents                97338                       # Number of times rename has blocked due to ROB full
system.cpu0.rename.IQFullEvents               1480587                       # Number of times rename has blocked due to IQ full
system.cpu0.rename.LQFullEvents                295433                       # Number of times rename has blocked due to LQ full
system.cpu0.rename.SQFullEvents                  1497                       # Number of times rename has blocked due to SQ full
system.cpu0.rename.RenamedOperands           15254116                       # Number of destination operands rename has renamed
system.cpu0.rename.RenameLookups             35404817                       # Number of register rename lookups that rename has made
system.cpu0.rename.int_rename_lookups        17031484                       # Number of integer rename lookups
system.cpu0.rename.fp_rename_lookups            85142                       # Number of floating rename lookups
system.cpu0.rename.CommittedMaps              5348214                       # Number of HB maps that are committed
system.cpu0.rename.UndoneMaps                 9905901                       # Number of HB maps that are undone due to squashing
system.cpu0.rename.serializingInsts               525                       # count of serializing insts renamed
system.cpu0.rename.tempSerializingInsts           657                       # count of temporary serializing insts renamed
system.cpu0.rename.skidInsts                  2948647                       # count of insts added to the skid buffer
system.cpu0.memDep0.insertedLoads             2246651                       # Number of loads inserted to the mem dependence unit.
system.cpu0.memDep0.insertedStores             162457                       # Number of stores inserted to the mem dependence unit.
system.cpu0.memDep0.conflictingLoads             9659                       # Number of conflicting loads.
system.cpu0.memDep0.conflictingStores            8044                       # Number of conflicting stores.
system.cpu0.iq.iqInstsAdded                  12064515                       # Number of instructions added to the IQ (excludes non-spec)
system.cpu0.iq.iqNonSpecInstsAdded               8387                       # Number of non-speculative instructions added to the IQ
system.cpu0.iq.iqInstsIssued                  8706391                       # Number of instructions issued
system.cpu0.iq.iqSquashedInstsIssued            12685                       # Number of squashed instructions issued
system.cpu0.iq.iqSquashedInstsExamined        7615078                       # Number of squashed instructions iterated over during squash; mainly for profiling
system.cpu0.iq.iqSquashedOperandsExamined     15482265                       # Number of squashed operands that are examined and possibly removed from graph
system.cpu0.iq.iqSquashedNonSpecRemoved          8387                       # Number of squashed non-spec instructions that were removed
system.cpu0.iq.issued_per_cycle::samples     30480293                       # Number of insts issued each cycle
system.cpu0.iq.issued_per_cycle::mean        0.285640                       # Number of insts issued each cycle
system.cpu0.iq.issued_per_cycle::stdev       0.985807                       # Number of insts issued each cycle
system.cpu0.iq.issued_per_cycle::underflows            0      0.00%      0.00% # Number of insts issued each cycle
system.cpu0.iq.issued_per_cycle::0           27115458     88.96%     88.96% # Number of insts issued each cycle
system.cpu0.iq.issued_per_cycle::1            1228225      4.03%     92.99% # Number of insts issued each cycle
system.cpu0.iq.issued_per_cycle::2             699898      2.30%     95.29% # Number of insts issued each cycle
system.cpu0.iq.issued_per_cycle::3             486300      1.60%     96.88% # Number of insts issued each cycle
system.cpu0.iq.issued_per_cycle::4             519474      1.70%     98.59% # Number of insts issued each cycle
system.cpu0.iq.issued_per_cycle::5             184610      0.61%     99.19% # Number of insts issued each cycle
system.cpu0.iq.issued_per_cycle::6             146632      0.48%     99.67% # Number of insts issued each cycle
system.cpu0.iq.issued_per_cycle::7              58836      0.19%     99.87% # Number of insts issued each cycle
system.cpu0.iq.issued_per_cycle::8              40860      0.13%    100.00% # Number of insts issued each cycle
system.cpu0.iq.issued_per_cycle::overflows            0      0.00%    100.00% # Number of insts issued each cycle
system.cpu0.iq.issued_per_cycle::min_value            0                       # Number of insts issued each cycle
system.cpu0.iq.issued_per_cycle::max_value            8                       # Number of insts issued each cycle
system.cpu0.iq.issued_per_cycle::total       30480293                       # Number of insts issued each cycle
system.cpu0.iq.fu_full::No_OpClass                  0      0.00%      0.00% # attempts to use FU when none available
system.cpu0.iq.fu_full::IntAlu                  24479     71.50%     71.50% # attempts to use FU when none available
system.cpu0.iq.fu_full::IntMult                     0      0.00%     71.50% # attempts to use FU when none available
system.cpu0.iq.fu_full::IntDiv                      0      0.00%     71.50% # attempts to use FU when none available
system.cpu0.iq.fu_full::FloatAdd                 2472      7.22%     78.73% # attempts to use FU when none available
system.cpu0.iq.fu_full::FloatCmp                    0      0.00%     78.73% # attempts to use FU when none available
system.cpu0.iq.fu_full::FloatCvt                    0      0.00%     78.73% # attempts to use FU when none available
system.cpu0.iq.fu_full::FloatMult                   0      0.00%     78.73% # attempts to use FU when none available
system.cpu0.iq.fu_full::FloatMultAcc                0      0.00%     78.73% # attempts to use FU when none available
system.cpu0.iq.fu_full::FloatDiv                    0      0.00%     78.73% # attempts to use FU when none available
system.cpu0.iq.fu_full::FloatMisc                   0      0.00%     78.73% # attempts to use FU when none available
system.cpu0.iq.fu_full::FloatSqrt                   0      0.00%     78.73% # attempts to use FU when none available
system.cpu0.iq.fu_full::SimdAdd                     0      0.00%     78.73% # attempts to use FU when none available
system.cpu0.iq.fu_full::SimdAddAcc                  0      0.00%     78.73% # attempts to use FU when none available
system.cpu0.iq.fu_full::SimdAlu                     0      0.00%     78.73% # attempts to use FU when none available
system.cpu0.iq.fu_full::SimdCmp                     0      0.00%     78.73% # attempts to use FU when none available
system.cpu0.iq.fu_full::SimdCvt                     0      0.00%     78.73% # attempts to use FU when none available
system.cpu0.iq.fu_full::SimdMisc                    0      0.00%     78.73% # attempts to use FU when none available
system.cpu0.iq.fu_full::SimdMult                    0      0.00%     78.73% # attempts to use FU when none available
system.cpu0.iq.fu_full::SimdMultAcc                 0      0.00%     78.73% # attempts to use FU when none available
system.cpu0.iq.fu_full::SimdShift                   0      0.00%     78.73% # attempts to use FU when none available
system.cpu0.iq.fu_full::SimdShiftAcc                0      0.00%     78.73% # attempts to use FU when none available
system.cpu0.iq.fu_full::SimdSqrt                    0      0.00%     78.73% # attempts to use FU when none available
system.cpu0.iq.fu_full::SimdFloatAdd                0      0.00%     78.73% # attempts to use FU when none available
system.cpu0.iq.fu_full::SimdFloatAlu                0      0.00%     78.73% # attempts to use FU when none available
system.cpu0.iq.fu_full::SimdFloatCmp                0      0.00%     78.73% # attempts to use FU when none available
system.cpu0.iq.fu_full::SimdFloatCvt                0      0.00%     78.73% # attempts to use FU when none available
system.cpu0.iq.fu_full::SimdFloatDiv                0      0.00%     78.73% # attempts to use FU when none available
system.cpu0.iq.fu_full::SimdFloatMisc               0      0.00%     78.73% # attempts to use FU when none available
system.cpu0.iq.fu_full::SimdFloatMult               0      0.00%     78.73% # attempts to use FU when none available
system.cpu0.iq.fu_full::SimdFloatMultAcc            0      0.00%     78.73% # attempts to use FU when none available
system.cpu0.iq.fu_full::SimdFloatSqrt               0      0.00%     78.73% # attempts to use FU when none available
system.cpu0.iq.fu_full::MemRead                  6253     18.27%     96.99% # attempts to use FU when none available
system.cpu0.iq.fu_full::MemWrite                  666      1.95%     98.94% # attempts to use FU when none available
system.cpu0.iq.fu_full::FloatMemRead              316      0.92%     99.86% # attempts to use FU when none available
system.cpu0.iq.fu_full::FloatMemWrite              48      0.14%    100.00% # attempts to use FU when none available
system.cpu0.iq.fu_full::IprAccess                   0      0.00%    100.00% # attempts to use FU when none available
system.cpu0.iq.fu_full::InstPrefetch                0      0.00%    100.00% # attempts to use FU when none available
system.cpu0.iq.FU_type_0::No_OpClass            35869      0.41%      0.41% # Type of FU issued
system.cpu0.iq.FU_type_0::IntAlu              7129485     81.89%     82.30% # Type of FU issued
system.cpu0.iq.FU_type_0::IntMult                2246      0.03%     82.33% # Type of FU issued
system.cpu0.iq.FU_type_0::IntDiv                22382      0.26%     82.58% # Type of FU issued
system.cpu0.iq.FU_type_0::FloatAdd              31075      0.36%     82.94% # Type of FU issued
system.cpu0.iq.FU_type_0::FloatCmp                  0      0.00%     82.94% # Type of FU issued
system.cpu0.iq.FU_type_0::FloatCvt                  0      0.00%     82.94% # Type of FU issued
system.cpu0.iq.FU_type_0::FloatMult                 0      0.00%     82.94% # Type of FU issued
system.cpu0.iq.FU_type_0::FloatMultAcc              0      0.00%     82.94% # Type of FU issued
system.cpu0.iq.FU_type_0::FloatDiv                  0      0.00%     82.94% # Type of FU issued
system.cpu0.iq.FU_type_0::FloatMisc                 0      0.00%     82.94% # Type of FU issued
system.cpu0.iq.FU_type_0::FloatSqrt                 0      0.00%     82.94% # Type of FU issued
system.cpu0.iq.FU_type_0::SimdAdd                   0      0.00%     82.94% # Type of FU issued
system.cpu0.iq.FU_type_0::SimdAddAcc                0      0.00%     82.94% # Type of FU issued
system.cpu0.iq.FU_type_0::SimdAlu                   0      0.00%     82.94% # Type of FU issued
system.cpu0.iq.FU_type_0::SimdCmp                   0      0.00%     82.94% # Type of FU issued
system.cpu0.iq.FU_type_0::SimdCvt                   0      0.00%     82.94% # Type of FU issued
system.cpu0.iq.FU_type_0::SimdMisc                  0      0.00%     82.94% # Type of FU issued
system.cpu0.iq.FU_type_0::SimdMult                  0      0.00%     82.94% # Type of FU issued
system.cpu0.iq.FU_type_0::SimdMultAcc               0      0.00%     82.94% # Type of FU issued
system.cpu0.iq.FU_type_0::SimdShift                 0      0.00%     82.94% # Type of FU issued
system.cpu0.iq.FU_type_0::SimdShiftAcc              0      0.00%     82.94% # Type of FU issued
system.cpu0.iq.FU_type_0::SimdSqrt                  0      0.00%     82.94% # Type of FU issued
system.cpu0.iq.FU_type_0::SimdFloatAdd              0      0.00%     82.94% # Type of FU issued
system.cpu0.iq.FU_type_0::SimdFloatAlu              0      0.00%     82.94% # Type of FU issued
system.cpu0.iq.FU_type_0::SimdFloatCmp              0      0.00%     82.94% # Type of FU issued
system.cpu0.iq.FU_type_0::SimdFloatCvt              0      0.00%     82.94% # Type of FU issued
system.cpu0.iq.FU_type_0::SimdFloatDiv              0      0.00%     82.94% # Type of FU issued
system.cpu0.iq.FU_type_0::SimdFloatMisc             0      0.00%     82.94% # Type of FU issued
system.cpu0.iq.FU_type_0::SimdFloatMult             0      0.00%     82.94% # Type of FU issued
system.cpu0.iq.FU_type_0::SimdFloatMultAcc            0      0.00%     82.94% # Type of FU issued
system.cpu0.iq.FU_type_0::SimdFloatSqrt             0      0.00%     82.94% # Type of FU issued
system.cpu0.iq.FU_type_0::MemRead             1358169     15.60%     98.54% # Type of FU issued
system.cpu0.iq.FU_type_0::MemWrite             120712      1.39%     99.93% # Type of FU issued
system.cpu0.iq.FU_type_0::FloatMemRead           6278      0.07%    100.00% # Type of FU issued
system.cpu0.iq.FU_type_0::FloatMemWrite           175      0.00%    100.00% # Type of FU issued
system.cpu0.iq.FU_type_0::IprAccess                 0      0.00%    100.00% # Type of FU issued
system.cpu0.iq.FU_type_0::InstPrefetch              0      0.00%    100.00% # Type of FU issued
system.cpu0.iq.FU_type_0::total               8706391                       # Type of FU issued
system.cpu0.iq.rate                          0.285131                       # Inst issue rate
system.cpu0.iq.fu_busy_cnt                      34234                       # FU busy when requested
system.cpu0.iq.fu_busy_rate                  0.003932                       # FU busy rate (busy events/executed inst)
system.cpu0.iq.int_inst_queue_reads          47861508                       # Number of integer instruction queue reads
system.cpu0.iq.int_inst_queue_writes         19615957                       # Number of integer instruction queue writes
system.cpu0.iq.int_inst_queue_wakeup_accesses      8295143                       # Number of integer instruction queue wakeup accesses
system.cpu0.iq.fp_inst_queue_reads              78486                       # Number of floating instruction queue reads
system.cpu0.iq.fp_inst_queue_writes             72028                       # Number of floating instruction queue writes
system.cpu0.iq.fp_inst_queue_wakeup_accesses        33893                       # Number of floating instruction queue wakeup accesses
system.cpu0.iq.vec_inst_queue_reads                 0                       # Number of vector instruction queue reads
system.cpu0.iq.vec_inst_queue_writes                0                       # Number of vector instruction queue writes
system.cpu0.iq.vec_inst_queue_wakeup_accesses            0                       # Number of vector instruction queue wakeup accesses
system.cpu0.iq.int_alu_accesses               8664374                       # Number of integer alu accesses
system.cpu0.iq.fp_alu_accesses                  40382                       # Number of floating point alu accesses
system.cpu0.iq.vec_alu_accesses                     0                       # Number of vector alu accesses
system.cpu0.iew.lsq.thread0.forwLoads            9956                       # Number of loads that had data forwarded from stores
system.cpu0.iew.lsq.thread0.invAddrLoads            0                       # Number of loads ignored due to an invalid address
system.cpu0.iew.lsq.thread0.squashedLoads      1434681                       # Number of loads squashed
system.cpu0.iew.lsq.thread0.ignoredResponses          315                       # Number of memory responses ignored because the instruction is squashed
system.cpu0.iew.lsq.thread0.memOrderViolation            7                       # Number of memory ordering violations
system.cpu0.iew.lsq.thread0.squashedStores        96884                       # Number of stores squashed
system.cpu0.iew.lsq.thread0.invAddrSwpfs            0                       # Number of software prefetches ignored due to an invalid address
system.cpu0.iew.lsq.thread0.blockedLoads            0                       # Number of blocked loads due to partial load-store forwarding
system.cpu0.iew.lsq.thread0.rescheduledLoads           91                       # Number of loads that were rescheduled
system.cpu0.iew.lsq.thread0.cacheBlocked         2128                       # Number of times an access to memory failed due to the cache being blocked
system.cpu0.iew.iewIdleCycles                       0                       # Number of cycles IEW is idle
system.cpu0.iew.iewSquashCycles                127614                       # Number of cycles IEW is squashing
system.cpu0.iew.iewBlockCycles               22746237                       # Number of cycles IEW is blocking
system.cpu0.iew.iewUnblockCycles               350007                       # Number of cycles IEW is unblocking
system.cpu0.iew.iewDispatchedInsts           12072902                       # Number of instructions dispatched to IQ
system.cpu0.iew.iewDispSquashedInsts             7604                       # Number of squashed instructions skipped by dispatch
system.cpu0.iew.iewDispLoadInsts              2246651                       # Number of dispatched load instructions
system.cpu0.iew.iewDispStoreInsts              162457                       # Number of dispatched store instructions
system.cpu0.iew.iewDispNonSpecInsts              3119                       # Number of dispatched non-speculative instructions
system.cpu0.iew.iewIQFullEvents                 27464                       # Number of times the IQ has become full, causing a stall
system.cpu0.iew.iewLSQFullEvents                79091                       # Number of times the LSQ has become full, causing a stall
system.cpu0.iew.memOrderViolationEvents             7                       # Number of memory order violations
system.cpu0.iew.predictedTakenIncorrect         65345                       # Number of branches that were predicted taken incorrectly
system.cpu0.iew.predictedNotTakenIncorrect        77766                       # Number of branches that were predicted not taken incorrectly
system.cpu0.iew.branchMispredicts              143111                       # Number of branch mispredicts detected at execute
system.cpu0.iew.iewExecutedInsts              8515197                       # Number of executed instructions
system.cpu0.iew.iewExecLoadInsts              1291358                       # Number of load instructions executed
system.cpu0.iew.iewExecSquashedInsts           191194                       # Number of squashed instructions skipped in execute
system.cpu0.iew.exec_swp                            0                       # number of swp insts executed
system.cpu0.iew.exec_nop                            0                       # number of nop insts executed
system.cpu0.iew.exec_refs                     1403743                       # number of memory reference insts executed
system.cpu0.iew.exec_branches                  999910                       # Number of branches executed
system.cpu0.iew.exec_stores                    112385                       # Number of stores executed
system.cpu0.iew.exec_rate                    0.278870                       # Inst execution rate
system.cpu0.iew.wb_sent                       8365165                       # cumulative count of insts sent to commit
system.cpu0.iew.wb_count                      8329036                       # cumulative count of insts written-back
system.cpu0.iew.wb_producers                  6212017                       # num instructions producing a value
system.cpu0.iew.wb_consumers                  9878312                       # num instructions consuming a value
system.cpu0.iew.wb_rate                      0.272773                       # insts written-back per cycle
system.cpu0.iew.wb_fanout                    0.628854                       # average fanout of values written-back
system.cpu0.commit.commitSquashedInsts        7616144                       # The number of squashed insts skipped by commit
system.cpu0.commit.branchMispredicts           127611                       # The number of times a branch was mispredicted
system.cpu0.commit.committed_per_cycle::samples     29389831                       # Number of insts commited each cycle
system.cpu0.commit.committed_per_cycle::mean     0.151679                       # Number of insts commited each cycle
system.cpu0.commit.committed_per_cycle::stdev     0.737240                       # Number of insts commited each cycle
system.cpu0.commit.committed_per_cycle::underflows            0      0.00%      0.00% # Number of insts commited each cycle
system.cpu0.commit.committed_per_cycle::0     27546542     93.73%     93.73% # Number of insts commited each cycle
system.cpu0.commit.committed_per_cycle::1       824812      2.81%     96.53% # Number of insts commited each cycle
system.cpu0.commit.committed_per_cycle::2       204511      0.70%     97.23% # Number of insts commited each cycle
system.cpu0.commit.committed_per_cycle::3       527029      1.79%     99.02% # Number of insts commited each cycle
system.cpu0.commit.committed_per_cycle::4       106623      0.36%     99.39% # Number of insts commited each cycle
system.cpu0.commit.committed_per_cycle::5        64037      0.22%     99.60% # Number of insts commited each cycle
system.cpu0.commit.committed_per_cycle::6        12665      0.04%     99.65% # Number of insts commited each cycle
system.cpu0.commit.committed_per_cycle::7         8660      0.03%     99.68% # Number of insts commited each cycle
system.cpu0.commit.committed_per_cycle::8        94952      0.32%    100.00% # Number of insts commited each cycle
system.cpu0.commit.committed_per_cycle::overflows            0      0.00%    100.00% # Number of insts commited each cycle
system.cpu0.commit.committed_per_cycle::min_value            0                       # Number of insts commited each cycle
system.cpu0.commit.committed_per_cycle::max_value            8                       # Number of insts commited each cycle
system.cpu0.commit.committed_per_cycle::total     29389831                       # Number of insts commited each cycle
system.cpu0.commit.committedInsts             2232380                       # Number of instructions committed
system.cpu0.commit.committedOps               4457824                       # Number of ops (including micro ops) committed
system.cpu0.commit.swp_count                        0                       # Number of s/w prefetches committed
system.cpu0.commit.refs                        877543                       # Number of memory references committed
system.cpu0.commit.loads                       811970                       # Number of loads committed
system.cpu0.commit.membars                          0                       # Number of memory barriers committed
system.cpu0.commit.branches                    773227                       # Number of branches committed
system.cpu0.commit.vec_insts                        0                       # Number of committed Vector instructions.
system.cpu0.commit.fp_insts                     26160                       # Number of committed floating point instructions.
system.cpu0.commit.int_insts                  4431392                       # Number of committed integer instructions.
system.cpu0.commit.function_calls               11550                       # Number of function calls committed.
system.cpu0.commit.op_class_0::No_OpClass         7856      0.18%      0.18% # Class of committed instruction
system.cpu0.commit.op_class_0::IntAlu         3530645     79.20%     79.38% # Class of committed instruction
system.cpu0.commit.op_class_0::IntMult            462      0.01%     79.39% # Class of committed instruction
system.cpu0.commit.op_class_0::IntDiv           18950      0.43%     79.81% # Class of committed instruction
system.cpu0.commit.op_class_0::FloatAdd         22368      0.50%     80.31% # Class of committed instruction
system.cpu0.commit.op_class_0::FloatCmp             0      0.00%     80.31% # Class of committed instruction
system.cpu0.commit.op_class_0::FloatCvt             0      0.00%     80.31% # Class of committed instruction
system.cpu0.commit.op_class_0::FloatMult            0      0.00%     80.31% # Class of committed instruction
system.cpu0.commit.op_class_0::FloatMultAcc            0      0.00%     80.31% # Class of committed instruction
system.cpu0.commit.op_class_0::FloatDiv             0      0.00%     80.31% # Class of committed instruction
system.cpu0.commit.op_class_0::FloatMisc            0      0.00%     80.31% # Class of committed instruction
system.cpu0.commit.op_class_0::FloatSqrt            0      0.00%     80.31% # Class of committed instruction
system.cpu0.commit.op_class_0::SimdAdd              0      0.00%     80.31% # Class of committed instruction
system.cpu0.commit.op_class_0::SimdAddAcc            0      0.00%     80.31% # Class of committed instruction
system.cpu0.commit.op_class_0::SimdAlu              0      0.00%     80.31% # Class of committed instruction
system.cpu0.commit.op_class_0::SimdCmp              0      0.00%     80.31% # Class of committed instruction
system.cpu0.commit.op_class_0::SimdCvt              0      0.00%     80.31% # Class of committed instruction
system.cpu0.commit.op_class_0::SimdMisc             0      0.00%     80.31% # Class of committed instruction
system.cpu0.commit.op_class_0::SimdMult             0      0.00%     80.31% # Class of committed instruction
system.cpu0.commit.op_class_0::SimdMultAcc            0      0.00%     80.31% # Class of committed instruction
system.cpu0.commit.op_class_0::SimdShift            0      0.00%     80.31% # Class of committed instruction
system.cpu0.commit.op_class_0::SimdShiftAcc            0      0.00%     80.31% # Class of committed instruction
system.cpu0.commit.op_class_0::SimdSqrt             0      0.00%     80.31% # Class of committed instruction
system.cpu0.commit.op_class_0::SimdFloatAdd            0      0.00%     80.31% # Class of committed instruction
system.cpu0.commit.op_class_0::SimdFloatAlu            0      0.00%     80.31% # Class of committed instruction
system.cpu0.commit.op_class_0::SimdFloatCmp            0      0.00%     80.31% # Class of committed instruction
system.cpu0.commit.op_class_0::SimdFloatCvt            0      0.00%     80.31% # Class of committed instruction
system.cpu0.commit.op_class_0::SimdFloatDiv            0      0.00%     80.31% # Class of committed instruction
system.cpu0.commit.op_class_0::SimdFloatMisc            0      0.00%     80.31% # Class of committed instruction
system.cpu0.commit.op_class_0::SimdFloatMult            0      0.00%     80.31% # Class of committed instruction
system.cpu0.commit.op_class_0::SimdFloatMultAcc            0      0.00%     80.31% # Class of committed instruction
system.cpu0.commit.op_class_0::SimdFloatSqrt            0      0.00%     80.31% # Class of committed instruction
system.cpu0.commit.op_class_0::MemRead         808178     18.13%     98.44% # Class of committed instruction
system.cpu0.commit.op_class_0::MemWrite         65573      1.47%     99.91% # Class of committed instruction
system.cpu0.commit.op_class_0::FloatMemRead         3792      0.09%    100.00% # Class of committed instruction
system.cpu0.commit.op_class_0::FloatMemWrite            0      0.00%    100.00% # Class of committed instruction
system.cpu0.commit.op_class_0::IprAccess            0      0.00%    100.00% # Class of committed instruction
system.cpu0.commit.op_class_0::InstPrefetch            0      0.00%    100.00% # Class of committed instruction
system.cpu0.commit.op_class_0::total          4457824                       # Class of committed instruction
system.cpu0.commit.bw_lim_events                94952                       # number cycles where commit BW limit reached
system.cpu0.rob.rob_reads                    41368847                       # The number of ROB reads
system.cpu0.rob.rob_writes                   25241985                       # The number of ROB writes
system.cpu0.timesIdled                            568                       # Number of times that the entire CPU went into an idle state and unscheduled itself
system.cpu0.idleCycles                          54395                       # Total number of cycles that the CPU has spent unscheduled due to idling
system.cpu0.committedInsts                    2232380                       # Number of Instructions Simulated
system.cpu0.committedOps                      4457824                       # Number of Ops (including micro ops) Simulated
system.cpu0.cpi                             13.678087                       # CPI: Cycles Per Instruction
system.cpu0.cpi_total                       13.678087                       # CPI: Total CPI of All Threads
system.cpu0.ipc                              0.073110                       # IPC: Instructions Per Cycle
system.cpu0.ipc_total                        0.073110                       # IPC: Total IPC of All Threads
system.cpu0.int_regfile_reads                 8761480                       # number of integer regfile reads
system.cpu0.int_regfile_writes                7233774                       # number of integer regfile writes
system.cpu0.fp_regfile_reads                    60030                       # number of floating regfile reads
system.cpu0.fp_regfile_writes                   29958                       # number of floating regfile writes
system.cpu0.cc_regfile_reads                  5246302                       # number of cc regfile reads
system.cpu0.cc_regfile_writes                 2313728                       # number of cc regfile writes
system.cpu0.misc_regfile_reads                4397474                       # number of misc regfile reads
system.cpu0.dcache.tags.pwrStateResidencyTicks::UNDEFINED  15267344125                       # Cumulative time (in ticks) in various power states
system.cpu0.dcache.tags.replacements           403595                       # number of replacements
system.cpu0.dcache.tags.tagsinuse                1024                       # Cycle average of tags in use
system.cpu0.dcache.tags.total_refs             634469                       # Total number of references to valid blocks.
system.cpu0.dcache.tags.sampled_refs           403595                       # Sample count of references to valid blocks.
system.cpu0.dcache.tags.avg_refs             1.572044                       # Average number of references to valid blocks.
system.cpu0.dcache.tags.warmup_cycle                0                       # Cycle when the warmup percentage was hit.
system.cpu0.dcache.tags.occ_blocks::cpu0.data         1024                       # Average occupied blocks per requestor
system.cpu0.dcache.tags.occ_percent::cpu0.data            1                       # Average percentage of cache occupancy
system.cpu0.dcache.tags.occ_percent::total            1                       # Average percentage of cache occupancy
system.cpu0.dcache.tags.occ_task_id_blocks::1024         1024                       # Occupied blocks per task id
system.cpu0.dcache.tags.age_task_id_blocks_1024::0          137                       # Occupied blocks per task id
system.cpu0.dcache.tags.age_task_id_blocks_1024::1          795                       # Occupied blocks per task id
system.cpu0.dcache.tags.age_task_id_blocks_1024::2           92                       # Occupied blocks per task id
system.cpu0.dcache.tags.occ_task_id_percent::1024            1                       # Percentage of cache occupancy per task id
system.cpu0.dcache.tags.tag_accesses          5756579                       # Number of tag accesses
system.cpu0.dcache.tags.data_accesses         5756579                       # Number of data accesses
system.cpu0.dcache.pwrStateResidencyTicks::UNDEFINED  15267344125                       # Cumulative time (in ticks) in various power states
system.cpu0.dcache.ReadReq_hits::cpu0.data       569587                       # number of ReadReq hits
system.cpu0.dcache.ReadReq_hits::total         569587                       # number of ReadReq hits
system.cpu0.dcache.WriteReq_hits::cpu0.data        63872                       # number of WriteReq hits
system.cpu0.dcache.WriteReq_hits::total         63872                       # number of WriteReq hits
system.cpu0.dcache.demand_hits::cpu0.data       633459                       # number of demand (read+write) hits
system.cpu0.dcache.demand_hits::total          633459                       # number of demand (read+write) hits
system.cpu0.dcache.overall_hits::cpu0.data       633459                       # number of overall hits
system.cpu0.dcache.overall_hits::total         633459                       # number of overall hits
system.cpu0.dcache.ReadReq_misses::cpu0.data       703086                       # number of ReadReq misses
system.cpu0.dcache.ReadReq_misses::total       703086                       # number of ReadReq misses
system.cpu0.dcache.WriteReq_misses::cpu0.data         1701                       # number of WriteReq misses
system.cpu0.dcache.WriteReq_misses::total         1701                       # number of WriteReq misses
system.cpu0.dcache.demand_misses::cpu0.data       704787                       # number of demand (read+write) misses
system.cpu0.dcache.demand_misses::total        704787                       # number of demand (read+write) misses
system.cpu0.dcache.overall_misses::cpu0.data       704787                       # number of overall misses
system.cpu0.dcache.overall_misses::total       704787                       # number of overall misses
system.cpu0.dcache.ReadReq_miss_latency::cpu0.data  34072113500                       # number of ReadReq miss cycles
system.cpu0.dcache.ReadReq_miss_latency::total  34072113500                       # number of ReadReq miss cycles
system.cpu0.dcache.WriteReq_miss_latency::cpu0.data     81714000                       # number of WriteReq miss cycles
system.cpu0.dcache.WriteReq_miss_latency::total     81714000                       # number of WriteReq miss cycles
system.cpu0.dcache.demand_miss_latency::cpu0.data  34153827500                       # number of demand (read+write) miss cycles
system.cpu0.dcache.demand_miss_latency::total  34153827500                       # number of demand (read+write) miss cycles
system.cpu0.dcache.overall_miss_latency::cpu0.data  34153827500                       # number of overall miss cycles
system.cpu0.dcache.overall_miss_latency::total  34153827500                       # number of overall miss cycles
system.cpu0.dcache.ReadReq_accesses::cpu0.data      1272673                       # number of ReadReq accesses(hits+misses)
system.cpu0.dcache.ReadReq_accesses::total      1272673                       # number of ReadReq accesses(hits+misses)
system.cpu0.dcache.WriteReq_accesses::cpu0.data        65573                       # number of WriteReq accesses(hits+misses)
system.cpu0.dcache.WriteReq_accesses::total        65573                       # number of WriteReq accesses(hits+misses)
system.cpu0.dcache.demand_accesses::cpu0.data      1338246                       # number of demand (read+write) accesses
system.cpu0.dcache.demand_accesses::total      1338246                       # number of demand (read+write) accesses
system.cpu0.dcache.overall_accesses::cpu0.data      1338246                       # number of overall (read+write) accesses
system.cpu0.dcache.overall_accesses::total      1338246                       # number of overall (read+write) accesses
system.cpu0.dcache.ReadReq_miss_rate::cpu0.data     0.552448                       # miss rate for ReadReq accesses
[...]
system.l2.ReadExReq_miss_rate::cpu0.data     0.374778                       # miss rate for ReadExReq accesses
system.l2.ReadExReq_miss_rate::total         0.374778                       # miss rate for ReadExReq accesses
system.l2.ReadCleanReq_miss_rate::cpu0.inst            1                       # miss rate for ReadCleanReq accesses
system.l2.ReadCleanReq_miss_rate::total             1                       # miss rate for ReadCleanReq accesses
system.l2.ReadSharedReq_miss_rate::cpu0.data     0.398570                       # miss rate for ReadSharedReq accesses
system.l2.ReadSharedReq_miss_rate::total     0.398570                       # miss rate for ReadSharedReq accesses
system.l2.demand_miss_rate::cpu0.inst               1                       # miss rate for demand accesses
system.l2.demand_miss_rate::cpu0.data        0.398470                       # miss rate for demand accesses
system.l2.demand_miss_rate::total            0.398472                       # miss rate for demand accesses
system.l2.overall_miss_rate::cpu0.inst              1                       # miss rate for overall accesses
system.l2.overall_miss_rate::cpu0.data       0.398470                       # miss rate for overall accesses
system.l2.overall_miss_rate::total           0.398472                       # miss rate for overall accesses
system.l2.ReadExReq_avg_miss_latency::cpu0.data 102160.347551                       # average ReadExReq miss latency
system.l2.ReadExReq_avg_miss_latency::total 102160.347551                       # average ReadExReq miss latency
system.l2.ReadCleanReq_avg_miss_latency::cpu0.inst       103500                       # average ReadCleanReq miss latency
system.l2.ReadCleanReq_avg_miss_latency::total       103500                       # average ReadCleanReq miss latency
system.l2.ReadSharedReq_avg_miss_latency::cpu0.data 95899.817714                       # average ReadSharedReq miss latency
system.l2.ReadSharedReq_avg_miss_latency::total 95899.817714                       # average ReadSharedReq miss latency
system.l2.demand_avg_miss_latency::cpu0.inst       103500                       # average overall miss latency
system.l2.demand_avg_miss_latency::cpu0.data 95924.459492                       # average overall miss latency
system.l2.demand_avg_miss_latency::total 95924.506597                       # average overall miss latency
system.l2.overall_avg_miss_latency::cpu0.inst       103500                       # average overall miss latency
system.l2.overall_avg_miss_latency::cpu0.data 95924.459492                       # average overall miss latency
system.l2.overall_avg_miss_latency::total 95924.506597                       # average overall miss latency
system.l2.blocked_cycles::no_mshrs                  0                       # number of cycles access was blocked
system.l2.blocked_cycles::no_targets                0                       # number of cycles access was blocked
system.l2.blocked::no_mshrs                         0                       # number of cycles access was blocked
system.l2.blocked::no_targets                       0                       # number of cycles access was blocked
system.l2.avg_blocked_cycles::no_mshrs            nan                       # average number of cycles each access was blocked
system.l2.avg_blocked_cycles::no_targets          nan                       # average number of cycles each access was blocked
system.l2.writebacks::writebacks                  794                       # number of writebacks
system.l2.writebacks::total                       794                       # number of writebacks
system.l2.ReadExReq_mshr_misses::cpu0.data          633                       # number of ReadExReq MSHR misses
system.l2.ReadExReq_mshr_misses::total            633                       # number of ReadExReq MSHR misses
system.l2.ReadCleanReq_mshr_misses::cpu0.inst            1                       # number of ReadCleanReq MSHR misses
system.l2.ReadCleanReq_mshr_misses::total            1                       # number of ReadCleanReq MSHR misses
system.l2.ReadSharedReq_mshr_misses::cpu0.data       160188                       # number of ReadSharedReq MSHR misses
system.l2.ReadSharedReq_mshr_misses::total       160188                       # number of ReadSharedReq MSHR misses
system.l2.demand_mshr_misses::cpu0.inst             1                       # number of demand (read+write) MSHR misses
system.l2.demand_mshr_misses::cpu0.data        160821                       # number of demand (read+write) MSHR misses
system.l2.demand_mshr_misses::total            160822                       # number of demand (read+write) MSHR misses
system.l2.overall_mshr_misses::cpu0.inst            1                       # number of overall MSHR misses
system.l2.overall_mshr_misses::cpu0.data       160821                       # number of overall MSHR misses
system.l2.overall_mshr_misses::total           160822                       # number of overall MSHR misses
system.l2.ReadExReq_mshr_miss_latency::cpu0.data     58337500                       # number of ReadExReq MSHR miss cycles
system.l2.ReadExReq_mshr_miss_latency::total     58337500                       # number of ReadExReq MSHR miss cycles
system.l2.ReadCleanReq_mshr_miss_latency::cpu0.inst        93500                       # number of ReadCleanReq MSHR miss cycles
system.l2.ReadCleanReq_mshr_miss_latency::total        93500                       # number of ReadCleanReq MSHR miss cycles
system.l2.ReadSharedReq_mshr_miss_latency::cpu0.data  13760140000                       # number of ReadSharedReq MSHR miss cycles
system.l2.ReadSharedReq_mshr_miss_latency::total  13760140000                       # number of ReadSharedReq MSHR miss cycles
system.l2.demand_mshr_miss_latency::cpu0.inst        93500                       # number of demand (read+write) MSHR miss cycles
system.l2.demand_mshr_miss_latency::cpu0.data  13818477500                       # number of demand (read+write) MSHR miss cycles
system.l2.demand_mshr_miss_latency::total  13818571000                       # number of demand (read+write) MSHR miss cycles
system.l2.overall_mshr_miss_latency::cpu0.inst        93500                       # number of overall MSHR miss cycles
system.l2.overall_mshr_miss_latency::cpu0.data  13818477500                       # number of overall MSHR miss cycles
system.l2.overall_mshr_miss_latency::total  13818571000                       # number of overall MSHR miss cycles
system.l2.ReadExReq_mshr_miss_rate::cpu0.data     0.374778                       # mshr miss rate for ReadExReq accesses
system.l2.ReadExReq_mshr_miss_rate::total     0.374778                       # mshr miss rate for ReadExReq accesses
system.l2.ReadCleanReq_mshr_miss_rate::cpu0.inst            1                       # mshr miss rate for ReadCleanReq accesses
system.l2.ReadCleanReq_mshr_miss_rate::total            1                       # mshr miss rate for ReadCleanReq accesses
system.l2.ReadSharedReq_mshr_miss_rate::cpu0.data     0.398570                       # mshr miss rate for ReadSharedReq accesses
system.l2.ReadSharedReq_mshr_miss_rate::total     0.398570                       # mshr miss rate for ReadSharedReq accesses
system.l2.demand_mshr_miss_rate::cpu0.inst            1                       # mshr miss rate for demand accesses
system.l2.demand_mshr_miss_rate::cpu0.data     0.398470                       # mshr miss rate for demand accesses
system.l2.demand_mshr_miss_rate::total       0.398472                       # mshr miss rate for demand accesses
system.l2.overall_mshr_miss_rate::cpu0.inst            1                       # mshr miss rate for overall accesses
system.l2.overall_mshr_miss_rate::cpu0.data     0.398470                       # mshr miss rate for overall accesses
system.l2.overall_mshr_miss_rate::total      0.398472                       # mshr miss rate for overall accesses
system.l2.ReadExReq_avg_mshr_miss_latency::cpu0.data 92160.347551                       # average ReadExReq mshr miss latency
system.l2.ReadExReq_avg_mshr_miss_latency::total 92160.347551                       # average ReadExReq mshr miss latency
system.l2.ReadCleanReq_avg_mshr_miss_latency::cpu0.inst        93500                       # average ReadCleanReq mshr miss latency
system.l2.ReadCleanReq_avg_mshr_miss_latency::total        93500                       # average ReadCleanReq mshr miss latency
system.l2.ReadSharedReq_avg_mshr_miss_latency::cpu0.data 85899.942567                       # average ReadSharedReq mshr miss latency
system.l2.ReadSharedReq_avg_mshr_miss_latency::total 85899.942567                       # average ReadSharedReq mshr miss latency
system.l2.demand_avg_mshr_miss_latency::cpu0.inst        93500                       # average overall mshr miss latency
system.l2.demand_avg_mshr_miss_latency::cpu0.data 85924.583854                       # average overall mshr miss latency
system.l2.demand_avg_mshr_miss_latency::total 85924.630958                       # average overall mshr miss latency
system.l2.overall_avg_mshr_miss_latency::cpu0.inst        93500                       # average overall mshr miss latency
system.l2.overall_avg_mshr_miss_latency::cpu0.data 85924.583854                       # average overall mshr miss latency
system.l2.overall_avg_mshr_miss_latency::total 85924.630958                       # average overall mshr miss latency
system.membus.snoop_filter.tot_requests        321641                       # Total number of requests made to the snoop filter.
system.membus.snoop_filter.hit_single_requests       160822                       # Number of requests hitting in the snoop filter with a single holder of the requested data.
system.membus.snoop_filter.hit_multi_requests            0                       # Number of requests hitting in the snoop filter with multiple (>1) holders of the requested data.
system.membus.snoop_filter.tot_snoops               0                       # Total number of snoops made to the snoop filter.
system.membus.snoop_filter.hit_single_snoops            0                       # Number of snoops hitting in the snoop filter with a single holder of the requested data.
system.membus.snoop_filter.hit_multi_snoops            0                       # Number of snoops hitting in the snoop filter with multiple (>1) holders of the requested data.
system.membus.pwrStateResidencyTicks::UNDEFINED  15267344125                       # Cumulative time (in ticks) in various power states
system.membus.trans_dist::ReadResp             160187                       # Transaction distribution
system.membus.trans_dist::WritebackDirty          794                       # Transaction distribution
system.membus.trans_dist::CleanEvict           160027                       # Transaction distribution
system.membus.trans_dist::ReadExReq               633                       # Transaction distribution
system.membus.trans_dist::ReadExResp              633                       # Transaction distribution
system.membus.trans_dist::ReadSharedReq        160187                       # Transaction distribution
system.membus.pkt_count_system.l2.mem_side::system.mem_ctrls.port       482461                       # Packet count per connected master and slave (bytes)
system.membus.pkt_count_system.l2.mem_side::total       482461                       # Packet count per connected master and slave (bytes)
system.membus.pkt_count::total                 482461                       # Packet count per connected master and slave (bytes)
system.membus.pkt_size_system.l2.mem_side::system.mem_ctrls.port     10343296                       # Cumulative packet size per connected master and slave (bytes)
system.membus.pkt_size_system.l2.mem_side::total     10343296                       # Cumulative packet size per connected master and slave (bytes)
system.membus.pkt_size::total                10343296                       # Cumulative packet size per connected master and slave (bytes)
system.membus.snoops                                0                       # Total snoops (count)
system.membus.snoopTraffic                          0                       # Total snoop traffic (bytes)
system.membus.snoop_fanout::samples            160820                       # Request fanout histogram
system.membus.snoop_fanout::mean                    0                       # Request fanout histogram
system.membus.snoop_fanout::stdev                   0                       # Request fanout histogram
system.membus.snoop_fanout::underflows              0      0.00%      0.00% # Request fanout histogram
system.membus.snoop_fanout::0                  160820    100.00%    100.00% # Request fanout histogram
system.membus.snoop_fanout::1                       0      0.00%    100.00% # Request fanout histogram
system.membus.snoop_fanout::overflows               0      0.00%    100.00% # Request fanout histogram
system.membus.snoop_fanout::min_value               0                       # Request fanout histogram
system.membus.snoop_fanout::max_value               0                       # Request fanout histogram
system.membus.snoop_fanout::total              160820                       # Request fanout histogram
system.membus.reqLayer8.occupancy           376800500                       # Layer occupancy (ticks)
system.membus.reqLayer8.utilization               2.5                       # Layer utilization (%)
system.membus.respLayer1.occupancy          875524500                       # Layer occupancy (ticks)
system.membus.respLayer1.utilization              5.7                       # Layer utilization (%)
system.tol2bus.snoop_filter.tot_requests       807193                       # Total number of requests made to the snoop filter.
system.tol2bus.snoop_filter.hit_single_requests       403596                       # Number of requests hitting in the snoop filter with a single holder of the requested data.
system.tol2bus.snoop_filter.hit_multi_requests          861                       # Number of requests hitting in the snoop filter with multiple (>1) holders of the requested data.
system.tol2bus.snoop_filter.tot_snoops              1                       # Total number of snoops made to the snoop filter.
system.tol2bus.snoop_filter.hit_single_snoops            1                       # Number of snoops hitting in the snoop filter with a single holder of the requested data.
system.tol2bus.snoop_filter.hit_multi_snoops            0                       # Number of snoops hitting in the snoop filter with multiple (>1) holders of the requested data.
system.tol2bus.pwrStateResidencyTicks::UNDEFINED  15267344125                       # Cumulative time (in ticks) in various power states
system.tol2bus.trans_dist::ReadResp            401907                       # Transaction distribution
system.tol2bus.trans_dist::WritebackDirty         5704                       # Transaction distribution
system.tol2bus.trans_dist::WritebackClean            1                       # Transaction distribution
system.tol2bus.trans_dist::CleanEvict          558712                       # Transaction distribution
system.tol2bus.trans_dist::ReadExReq             1689                       # Transaction distribution
system.tol2bus.trans_dist::ReadExResp            1689                       # Transaction distribution
system.tol2bus.trans_dist::ReadCleanReq             1                       # Transaction distribution
system.tol2bus.trans_dist::ReadSharedReq       401907                       # Transaction distribution
system.tol2bus.pkt_count_system.cpu0.icache.mem_side::system.l2.cpu_side            3                       # Packet count per connected master and slave (bytes)
system.tol2bus.pkt_count_system.cpu0.dcache.mem_side::system.l2.cpu_side      1210786                       # Packet count per connected master and slave (bytes)
system.tol2bus.pkt_count::total               1210789                       # Packet count per connected master and slave (bytes)
system.tol2bus.pkt_size_system.cpu0.icache.mem_side::system.l2.cpu_side          128                       # Cumulative packet size per connected master and slave (bytes)
system.tol2bus.pkt_size_system.cpu0.dcache.mem_side::system.l2.cpu_side     26144320                       # Cumulative packet size per connected master and slave (bytes)
system.tol2bus.pkt_size::total               26144448                       # Cumulative packet size per connected master and slave (bytes)
system.tol2bus.snoops                          160821                       # Total snoops (count)
system.tol2bus.snoopTraffic                     50816                       # Total snoop traffic (bytes)
system.tol2bus.snoop_fanout::samples           564418                       # Request fanout histogram
system.tol2bus.snoop_fanout::mean            0.001527                       # Request fanout histogram
system.tol2bus.snoop_fanout::stdev           0.039050                       # Request fanout histogram
system.tol2bus.snoop_fanout::underflows             0      0.00%      0.00% # Request fanout histogram
system.tol2bus.snoop_fanout::0                 563556     99.85%     99.85% # Request fanout histogram
system.tol2bus.snoop_fanout::1                    862      0.15%    100.00% # Request fanout histogram
system.tol2bus.snoop_fanout::2                      0      0.00%    100.00% # Request fanout histogram
system.tol2bus.snoop_fanout::3                      0      0.00%    100.00% # Request fanout histogram
system.tol2bus.snoop_fanout::4                      0      0.00%    100.00% # Request fanout histogram
system.tol2bus.snoop_fanout::5                      0      0.00%    100.00% # Request fanout histogram
system.tol2bus.snoop_fanout::6                      0      0.00%    100.00% # Request fanout histogram
system.tol2bus.snoop_fanout::7                      0      0.00%    100.00% # Request fanout histogram
system.tol2bus.snoop_fanout::8                      0      0.00%    100.00% # Request fanout histogram
system.tol2bus.snoop_fanout::9                      0      0.00%    100.00% # Request fanout histogram
system.tol2bus.snoop_fanout::10                     0      0.00%    100.00% # Request fanout histogram
system.tol2bus.snoop_fanout::11                     0      0.00%    100.00% # Request fanout histogram
system.tol2bus.snoop_fanout::12                     0      0.00%    100.00% # Request fanout histogram
system.tol2bus.snoop_fanout::13                     0      0.00%    100.00% # Request fanout histogram
system.tol2bus.snoop_fanout::14                     0      0.00%    100.00% # Request fanout histogram
system.tol2bus.snoop_fanout::15                     0      0.00%    100.00% # Request fanout histogram
system.tol2bus.snoop_fanout::16                     0      0.00%    100.00% # Request fanout histogram
system.tol2bus.snoop_fanout::overflows              0      0.00%    100.00% # Request fanout histogram
system.tol2bus.snoop_fanout::min_value              0                       # Request fanout histogram
system.tol2bus.snoop_fanout::max_value              1                       # Request fanout histogram
system.tol2bus.snoop_fanout::total             564418                       # Request fanout histogram
system.tol2bus.reqLayer0.occupancy          408507500                       # Layer occupancy (ticks)
system.tol2bus.reqLayer0.utilization              2.7                       # Layer utilization (%)
system.tol2bus.respLayer0.occupancy              1500                       # Layer occupancy (ticks)
system.tol2bus.respLayer0.utilization             0.0                       # Layer utilization (%)
system.tol2bus.respLayer1.occupancy         605392500                       # Layer occupancy (ticks)
system.tol2bus.respLayer1.utilization             4.0                       # Layer utilization (%)

---------- End Simulation Statistics   ----------
