
---------- Begin Simulation Statistics ----------
sim_seconds                                  0.015267                       # Number of seconds simulated
sim_ticks                                 15267344125                       # Number of ticks simulated
final_tick                               5099292937750                       # Number of ticks from beginning of simulation (restored from checkpoints and never reset)
sim_freq                                 1000000000000                       # Frequency of simulated ticks
host_inst_rate                              130223612                       # Simulator instruction rate (inst/s)
host_op_rate                                242117817                       # Simulator op (including micro ops) rate (op/s)
host_tick_rate                              340903485                       # Simulator tick rate (ticks/s)
host_mem_usage                                2332528                       # Number of bytes of host memory used
host_seconds                                    44.79                       # Real time elapsed on the host
sim_insts                                  5832055196                       # Number of instructions simulated
sim_ops                                   10843231390                       # Number of ops (including micro ops) simulated
system.voltage_domain.voltage                       1                       # Voltage in Volts
system.clk_domain.clock                          1000                       # Clock period in ticks
system.mem_ctrls.pwrStateResidencyTicks::UNDEFINED  15267344125                       # Cumulative time (in ticks) in various power states
system.mem_ctrls.bytes_read::cpu0.data       11637376                       # Number of bytes read from this memory
system.mem_ctrls.bytes_read::total           11637376                       # Number of bytes read from this memory
system.mem_ctrls.bytes_written::writebacks        24832                       # Number of bytes written to this memory
system.mem_ctrls.bytes_written::total           24832                       # Number of bytes written to this memory
system.mem_ctrls.num_reads::cpu0.data          181834                       # Number of read requests responded to by this memory
system.mem_ctrls.num_reads::total              181834                       # Number of read requests responded to by this memory
system.mem_ctrls.num_writes::writebacks           388                       # Number of write requests responded to by this memory
system.mem_ctrls.num_writes::total                388                       # Number of write requests responded to by this memory
system.mem_ctrls.bw_read::cpu0.data         762239713                       # Total read bandwidth from this memory (bytes/s)
system.mem_ctrls.bw_read::total             762239713                       # Total read bandwidth from this memory (bytes/s)
system.mem_ctrls.bw_write::writebacks         1626478                       # Write bandwidth from this memory (bytes/s)
system.mem_ctrls.bw_write::total              1626478                       # Write bandwidth from this memory (bytes/s)
system.mem_ctrls.bw_total::writebacks         1626478                       # Total bandwidth to/from this memory (bytes/s)
system.mem_ctrls.bw_total::cpu0.data        762239713                       # Total bandwidth to/from this memory (bytes/s)
system.mem_ctrls.bw_total::total            763866191                       # Total bandwidth to/from this memory (bytes/s)
system.mem_ctrls.readReqs                      181834                       # Number of read requests accepted
system.mem_ctrls.writeReqs                        388                       # Number of write requests accepted
system.mem_ctrls.readBursts                    181834                       # Number of DRAM read bursts, including those serviced by the write queue
system.mem_ctrls.writeBursts                      388                       # Number of DRAM write bursts, including those merged in the write queue
system.mem_ctrls.bytesReadDRAM               11633984                       # Total number of bytes read from DRAM
system.mem_ctrls.bytesReadWrQ                    3392                       # Total number of bytes read from write queue
system.mem_ctrls.bytesWritten                   24576                       # Total number of bytes written to DRAM
system.mem_ctrls.bytesReadSys                11637376                       # Total read bytes from the system interface side
system.mem_ctrls.bytesWrittenSys                24832                       # Total written bytes from the system interface side
system.mem_ctrls.servicedByWrQ                     53                       # Number of DRAM read bursts serviced by the write queue
system.mem_ctrls.mergedWrBursts                     0                       # Number of DRAM write bursts merged with an existing one
system.mem_ctrls.neitherReadNorWriteReqs            0                       # Number of requests that are neither read nor write
system.mem_ctrls.perBankRdBursts::0             10938                       # Per bank write bursts
system.mem_ctrls.perBankRdBursts::1             11163                       # Per bank write bursts
system.mem_ctrls.perBankRdBursts::2             11301                       # Per bank write bursts
system.mem_ctrls.perBankRdBursts::3             11457                       # Per bank write bursts
system.mem_ctrls.perBankRdBursts::4             11741                       # Per bank write bursts
system.mem_ctrls.perBankRdBursts::5             11496                       # Per bank write bursts
system.mem_ctrls.perBankRdBursts::6             11480                       # Per bank write bursts
system.mem_ctrls.perBankRdBursts::7             11496                       # Per bank write bursts
system.mem_ctrls.perBankRdBursts::8             11321                       # Per bank write bursts
system.mem_ctrls.perBankRdBursts::9             11413                       # Per bank write bursts
system.mem_ctrls.perBankRdBursts::10            11415                       # Per bank write bursts
system.mem_ctrls.perBankRdBursts::11            11215                       # Per bank write bursts
system.mem_ctrls.perBankRdBursts::12            11640                       # Per bank write bursts
system.mem_ctrls.perBankRdBursts::13            11393                       # Per bank write bursts
system.mem_ctrls.perBankRdBursts::14            11194                       # Per bank write bursts
system.mem_ctrls.perBankRdBursts::15            11118                       # Per bank write bursts
system.mem_ctrls.perBankWrBursts::0                 0                       # Per bank write bursts
system.mem_ctrls.perBankWrBursts::1                 0                       # Per bank write bursts
system.mem_ctrls.perBankWrBursts::2                 0                       # Per bank write bursts
system.mem_ctrls.perBankWrBursts::3                68                       # Per bank write bursts
system.mem_ctrls.perBankWrBursts::4                 9                       # Per bank write bursts
system.mem_ctrls.perBankWrBursts::5                 0                       # Per bank write bursts
system.mem_ctrls.perBankWrBursts::6                 0                       # Per bank write bursts
system.mem_ctrls.perBankWrBursts::7                 0                       # Per bank write bursts
system.mem_ctrls.perBankWrBursts::8                 1                       # Per bank write bursts
system.mem_ctrls.perBankWrBursts::9                 1                       # Per bank write bursts
system.mem_ctrls.perBankWrBursts::10                6                       # Per bank write bursts
system.mem_ctrls.perBankWrBursts::11               83                       # Per bank write bursts
system.mem_ctrls.perBankWrBursts::12              135                       # Per bank write bursts
system.mem_ctrls.perBankWrBursts::13               68                       # Per bank write bursts
system.mem_ctrls.perBankWrBursts::14                0                       # Per bank write bursts
system.mem_ctrls.perBankWrBursts::15               13                       # Per bank write bursts
system.mem_ctrls.numRdRetry                         0                       # Number of times read queue was full causing retry
system.mem_ctrls.numWrRetry                         0                       # Number of times write queue was full causing retry
system.mem_ctrls.totGap                   15267360000                       # Total gap between requests
system.mem_ctrls.readPktSize::0                     0                       # Read request sizes (log2)
system.mem_ctrls.readPktSize::1                     0                       # Read request sizes (log2)
system.mem_ctrls.readPktSize::2                     0                       # Read request sizes (log2)
system.mem_ctrls.readPktSize::3                     0                       # Read request sizes (log2)
system.mem_ctrls.readPktSize::4                     0                       # Read request sizes (log2)
system.mem_ctrls.readPktSize::5                     0                       # Read request sizes (log2)
system.mem_ctrls.readPktSize::6                181834                       # Read request sizes (log2)
system.mem_ctrls.writePktSize::0                    0                       # Write request sizes (log2)
system.mem_ctrls.writePktSize::1                    0                       # Write request sizes (log2)
system.mem_ctrls.writePktSize::2                    0                       # Write request sizes (log2)
system.mem_ctrls.writePktSize::3                    0                       # Write request sizes (log2)
system.mem_ctrls.writePktSize::4                    0                       # Write request sizes (log2)
system.mem_ctrls.writePktSize::5                    0                       # Write request sizes (log2)
system.mem_ctrls.writePktSize::6                  388                       # Write request sizes (log2)
system.mem_ctrls.rdQLenPdf::0                  140890                       # What read queue length does an incoming req see
system.mem_ctrls.rdQLenPdf::1                   38906                       # What read queue length does an incoming req see
system.mem_ctrls.rdQLenPdf::2                    1941                       # What read queue length does an incoming req see
system.mem_ctrls.rdQLenPdf::3                      44                       # What read queue length does an incoming req see
system.mem_ctrls.rdQLenPdf::4                       0                       # What read queue length does an incoming req see
system.mem_ctrls.rdQLenPdf::5                       0                       # What read queue length does an incoming req see
system.mem_ctrls.rdQLenPdf::6                       0                       # What read queue length does an incoming req see
system.mem_ctrls.rdQLenPdf::7                       0                       # What read queue length does an incoming req see
system.mem_ctrls.rdQLenPdf::8                       0                       # What read queue length does an incoming req see
system.mem_ctrls.rdQLenPdf::9                       0                       # What read queue length does an incoming req see
system.mem_ctrls.rdQLenPdf::10                      0                       # What read queue length does an incoming req see
system.mem_ctrls.rdQLenPdf::11                      0                       # What read queue length does an incoming req see
system.mem_ctrls.rdQLenPdf::12                      0                       # What read queue length does an incoming req see
system.mem_ctrls.rdQLenPdf::13                      0                       # What read queue length does an incoming req see
system.mem_ctrls.rdQLenPdf::14                      0                       # What read queue length does an incoming req see
system.mem_ctrls.rdQLenPdf::15                      0                       # What read queue length does an incoming req see
system.mem_ctrls.rdQLenPdf::16                      0                       # What read queue length does an incoming req see
system.mem_ctrls.rdQLenPdf::17                      0                       # What read queue length does an incoming req see
system.mem_ctrls.rdQLenPdf::18                      0                       # What read queue length does an incoming req see
system.mem_ctrls.rdQLenPdf::19                      0                       # What read queue length does an incoming req see
system.mem_ctrls.rdQLenPdf::20                      0                       # What read queue length does an incoming req see
system.mem_ctrls.rdQLenPdf::21                      0                       # What read queue length does an incoming req see
system.mem_ctrls.rdQLenPdf::22                      0                       # What read queue length does an incoming req see
system.mem_ctrls.rdQLenPdf::23                      0                       # What read queue length does an incoming req see
system.mem_ctrls.rdQLenPdf::24                      0                       # What read queue length does an incoming req see
system.mem_ctrls.rdQLenPdf::25                      0                       # What read queue length does an incoming req see
system.mem_ctrls.rdQLenPdf::26                      0                       # What read queue length does an incoming req see
system.mem_ctrls.rdQLenPdf::27                      0                       # What read queue length does an incoming req see
system.mem_ctrls.rdQLenPdf::28                      0                       # What read queue length does an incoming req see
system.mem_ctrls.rdQLenPdf::29                      0                       # What read queue length does an incoming req see
system.mem_ctrls.rdQLenPdf::30                      0                       # What read queue length does an incoming req see
system.mem_ctrls.rdQLenPdf::31                      0                       # What read queue length does an incoming req see
system.mem_ctrls.wrQLenPdf::0                       0                       # What write queue length does an incoming req see
system.mem_ctrls.wrQLenPdf::1                       0                       # What write queue length does an incoming req see
system.mem_ctrls.wrQLenPdf::2                       0                       # What write queue length does an incoming req see
system.mem_ctrls.wrQLenPdf::3                       0                       # What write queue length does an incoming req see
system.mem_ctrls.wrQLenPdf::4                       0                       # What write queue length does an incoming req see
system.mem_ctrls.wrQLenPdf::5                       0                       # What write queue length does an incoming req see
system.mem_ctrls.wrQLenPdf::6                       0                       # What write queue length does an incoming req see
system.mem_ctrls.wrQLenPdf::7                       0                       # What write queue length does an incoming req see
system.mem_ctrls.wrQLenPdf::8                       0                       # What write queue length does an incoming req see
system.mem_ctrls.wrQLenPdf::9                       0                       # What write queue length does an incoming req see
system.mem_ctrls.wrQLenPdf::10                      0                       # What write queue length does an incoming req see
system.mem_ctrls.wrQLenPdf::11                      0                       # What write queue length does an incoming req see
system.mem_ctrls.wrQLenPdf::12                      0                       # What write queue length does an incoming req see
system.mem_ctrls.wrQLenPdf::13                      0                       # What write queue length does an incoming req see
system.mem_ctrls.wrQLenPdf::14                      0                       # What write queue length does an incoming req see
system.mem_ctrls.wrQLenPdf::15                      0                       # What write queue length does an incoming req see
system.mem_ctrls.wrQLenPdf::16                      0                       # What write queue length does an incoming req see
system.mem_ctrls.wrQLenPdf::17                     24                       # What write queue length does an incoming req see
system.mem_ctrls.wrQLenPdf::18                     24                       # What write queue length does an incoming req see
system.mem_ctrls.wrQLenPdf::19                     24                       # What write queue length does an incoming req see
system.mem_ctrls.wrQLenPdf::20                     24                       # What write queue length does an incoming req see
system.mem_ctrls.wrQLenPdf::21                     24                       # What write queue length does an incoming req see
system.mem_ctrls.wrQLenPdf::22                     24                       # What write queue length does an incoming req see
system.mem_ctrls.wrQLenPdf::23                     25                       # What write queue length does an incoming req see
system.mem_ctrls.wrQLenPdf::24                     25                       # What write queue length does an incoming req see
system.mem_ctrls.wrQLenPdf::25                     25                       # What write queue length does an incoming req see
system.mem_ctrls.wrQLenPdf::26                     25                       # What write queue length does an incoming req see
system.mem_ctrls.wrQLenPdf::27                     24                       # What write queue length does an incoming req see
system.mem_ctrls.wrQLenPdf::28                     24                       # What write queue length does an incoming req see
system.mem_ctrls.wrQLenPdf::29                     24                       # What write queue length does an incoming req see
system.mem_ctrls.wrQLenPdf::30                     24                       # What write queue length does an incoming req see
system.mem_ctrls.wrQLenPdf::31                     24                       # What write queue length does an incoming req see
system.mem_ctrls.wrQLenPdf::32                     24                       # What write queue length does an incoming req see
system.mem_ctrls.wrQLenPdf::33                      0                       # What write queue length does an incoming req see
system.mem_ctrls.wrQLenPdf::34                      0                       # What write queue length does an incoming req see
system.mem_ctrls.wrQLenPdf::35                      0                       # What write queue length does an incoming req see
system.mem_ctrls.wrQLenPdf::36                      0                       # What write queue length does an incoming req see
system.mem_ctrls.wrQLenPdf::37                      0                       # What write queue length does an incoming req see
system.mem_ctrls.wrQLenPdf::38                      0                       # What write queue length does an incoming req see
system.mem_ctrls.wrQLenPdf::39                      0                       # What write queue length does an incoming req see
system.mem_ctrls.wrQLenPdf::40                      0                       # What write queue length does an incoming req see
system.mem_ctrls.wrQLenPdf::41                      0                       # What write queue length does an incoming req see
system.mem_ctrls.wrQLenPdf::42                      0                       # What write queue length does an incoming req see
system.mem_ctrls.wrQLenPdf::43                      0                       # What write queue length does an incoming req see
system.mem_ctrls.wrQLenPdf::44                      0                       # What write queue length does an incoming req see
system.mem_ctrls.wrQLenPdf::45                      0                       # What write queue length does an incoming req see
system.mem_ctrls.wrQLenPdf::46                      0                       # What write queue length does an incoming req see
system.mem_ctrls.wrQLenPdf::47                      0                       # What write queue length does an incoming req see
system.mem_ctrls.wrQLenPdf::48                      0                       # What write queue length does an incoming req see
system.mem_ctrls.wrQLenPdf::49                      0                       # What write queue length does an incoming req see
system.mem_ctrls.wrQLenPdf::50                      0                       # What write queue length does an incoming req see
system.mem_ctrls.wrQLenPdf::51                      0                       # What write queue length does an incoming req see
system.mem_ctrls.wrQLenPdf::52                      0                       # What write queue length does an incoming req see
system.mem_ctrls.wrQLenPdf::53                      0                       # What write queue length does an incoming req see
system.mem_ctrls.wrQLenPdf::54                      0                       # What write queue length does an incoming req see
system.mem_ctrls.wrQLenPdf::55                      0                       # What write queue length does an incoming req see
system.mem_ctrls.wrQLenPdf::56                      0                       # What write queue length does an incoming req see
system.mem_ctrls.wrQLenPdf::57                      0                       # What write queue length does an incoming req see
system.mem_ctrls.wrQLenPdf::58                      0                       # What write queue length does an incoming req see
system.mem_ctrls.wrQLenPdf::59                      0                       # What write queue length does an incoming req see
system.mem_ctrls.wrQLenPdf::60                      0                       # What write queue length does an incoming req see
system.mem_ctrls.wrQLenPdf::61                      0                       # What write queue length does an incoming req see
system.mem_ctrls.wrQLenPdf::62                      0                       # What write queue length does an incoming req see
system.mem_ctrls.wrQLenPdf::63                      0                       # What write queue length does an incoming req see
system.mem_ctrls.bytesPerActivate::samples        95847                       # Bytes accessed per row activation
system.mem_ctrls.bytesPerActivate::mean    121.636525                       # Bytes accessed per row activation
system.mem_ctrls.bytesPerActivate::gmean   105.000062                       # Bytes accessed per row activation
system.mem_ctrls.bytesPerActivate::stdev    72.817227                       # Bytes accessed per row activation
system.mem_ctrls.bytesPerActivate::0-127        45418     47.39%     47.39% # Bytes accessed per row activation
system.mem_ctrls.bytesPerActivate::128-255        41426     43.22%     90.61% # Bytes accessed per row activation
system.mem_ctrls.bytesPerActivate::256-383         7900      8.24%     98.85% # Bytes accessed per row activation
system.mem_ctrls.bytesPerActivate::384-511          967      1.01%     99.86% # Bytes accessed per row activation
system.mem_ctrls.bytesPerActivate::512-639          110      0.11%     99.97% # Bytes accessed per row activation
system.mem_ctrls.bytesPerActivate::640-767           13      0.01%     99.99% # Bytes accessed per row activation
system.mem_ctrls.bytesPerActivate::768-895            5      0.01%     99.99% # Bytes accessed per row activation
system.mem_ctrls.bytesPerActivate::896-1023            3      0.00%     99.99% # Bytes accessed per row activation
system.mem_ctrls.bytesPerActivate::1024-1151            5      0.01%    100.00% # Bytes accessed per row activation
system.mem_ctrls.bytesPerActivate::total        95847                       # Bytes accessed per row activation
system.mem_ctrls.rdPerTurnAround::samples           24                       # Reads before turning the bus around for writes
system.mem_ctrls.rdPerTurnAround::mean    7374.916667                       # Reads before turning the bus around for writes
system.mem_ctrls.rdPerTurnAround::gmean   7149.051323                       # Reads before turning the bus around for writes
system.mem_ctrls.rdPerTurnAround::stdev   1870.313782                       # Reads before turning the bus around for writes
system.mem_ctrls.rdPerTurnAround::3584-4095            1      4.17%      4.17% # Reads before turning the bus around for writes
system.mem_ctrls.rdPerTurnAround::5120-5631            4     16.67%     20.83% # Reads before turning the bus around for writes
system.mem_ctrls.rdPerTurnAround::5632-6143            2      8.33%     29.17% # Reads before turning the bus around for writes
system.mem_ctrls.rdPerTurnAround::6144-6655            2      8.33%     37.50% # Reads before turning the bus around for writes
system.mem_ctrls.rdPerTurnAround::6656-7167            3     12.50%     50.00% # Reads before turning the bus around for writes
system.mem_ctrls.rdPerTurnAround::7168-7679            3     12.50%     62.50% # Reads before turning the bus around for writes
system.mem_ctrls.rdPerTurnAround::7680-8191            2      8.33%     70.83% # Reads before turning the bus around for writes
system.mem_ctrls.rdPerTurnAround::8192-8703            1      4.17%     75.00% # Reads before turning the bus around for writes
system.mem_ctrls.rdPerTurnAround::8704-9215            1      4.17%     79.17% # Reads before turning the bus around for writes
system.mem_ctrls.rdPerTurnAround::9728-10239            4     16.67%     95.83% # Reads before turning the bus around for writes
system.mem_ctrls.rdPerTurnAround::10752-11263            1      4.17%    100.00% # Reads before turning the bus around for writes
system.mem_ctrls.rdPerTurnAround::total            24                       # Reads before turning the bus around for writes
system.mem_ctrls.wrPerTurnAround::samples           24                       # Writes before turning the bus around for reads
system.mem_ctrls.wrPerTurnAround::mean             16                       # Writes before turning the bus around for reads
system.mem_ctrls.wrPerTurnAround::gmean     16.000000                       # Writes before turning the bus around for reads
system.mem_ctrls.wrPerTurnAround::16               24    100.00%    100.00% # Writes before turning the bus around for reads
system.mem_ctrls.wrPerTurnAround::total            24                       # Writes before turning the bus around for reads
system.mem_ctrls.totQLat                   4561671250                       # Total ticks spent queuing
system.mem_ctrls.totMemAccLat              7970065000                       # Total ticks spent from burst creation until serviced by the DRAM
system.mem_ctrls.totBusLat                  908905000                       # Total ticks spent in databus transfers
system.mem_ctrls.avgQLat                     25094.32                       # Average queueing delay per DRAM burst
system.mem_ctrls.avgBusLat                    5000.00                       # Average bus latency per DRAM burst
system.mem_ctrls.avgMemAccLat                43844.32                       # Average memory access latency per DRAM burst
system.mem_ctrls.avgRdBW                       762.02                       # Average DRAM read bandwidth in MiByte/s
system.mem_ctrls.avgWrBW                         1.61                       # Average achieved write bandwidth in MiByte/s
system.mem_ctrls.avgRdBWSys                    762.24                       # Average system read bandwidth in MiByte/s
system.mem_ctrls.avgWrBWSys                      1.63                       # Average system write bandwidth in MiByte/s
system.mem_ctrls.peakBW                      12800.00                       # Theoretical peak bandwidth in MiByte/s
system.mem_ctrls.busUtil                         5.97                       # Data bus utilization in percentage
system.mem_ctrls.busUtilRead                     5.95                       # Data bus utilization in percentage for reads
system.mem_ctrls.busUtilWrite                    0.01                       # Data bus utilization in percentage for writes
system.mem_ctrls.avgRdQLen                       1.28                       # Average read queue length when enqueuing
system.mem_ctrls.avgWrQLen                      25.08                       # Average write queue length when enqueuing
system.mem_ctrls.readRowHits                    86005                       # Number of row buffer hits during reads
system.mem_ctrls.writeRowHits                     320                       # Number of row buffer hits during writes
system.mem_ctrls.readRowHitRate                 47.31                       # Row buffer hit rate for reads
system.mem_ctrls.writeRowHitRate                82.47                       # Row buffer hit rate for writes
system.mem_ctrls.avgGap                      83784.39                       # Average gap between requests
system.mem_ctrls.pageHitRate                    47.39                       # Row buffer hit rate, read and write combined
system.mem_ctrls_0.actEnergy                341606160                       # Energy for activate commands per rank (pJ)
system.mem_ctrls_0.preEnergy                181567980                       # Energy for precharge commands per rank (pJ)
system.mem_ctrls_0.readEnergy               650254080                       # Energy for read commands per rank (pJ)
system.mem_ctrls_0.writeEnergy                 401940                       # Energy for write commands per rank (pJ)
system.mem_ctrls_0.refreshEnergy         1205923680.000000                       # Energy for refresh commands per rank (pJ)
system.mem_ctrls_0.actBackEnergy           1572730320                       # Energy for active background per rank (pJ)
system.mem_ctrls_0.preBackEnergy             24871200                       # Energy for precharge background per rank (pJ)
system.mem_ctrls_0.actPowerDownEnergy      5175964800                       # Energy for active power-down per rank (pJ)
system.mem_ctrls_0.prePowerDownEnergy       151218240                       # Energy for precharge power-down per rank (pJ)
system.mem_ctrls_0.selfRefreshEnergy          3818820                       # Energy for self refresh per rank (pJ)
system.mem_ctrls_0.totalEnergy             9308357220                       # Total energy per rank (pJ)
system.mem_ctrls_0.averagePower            609.690667                       # Core power per rank (mW)
system.mem_ctrls_0.totalIdleTime          11753092750                       # Total Idle time Per DRAM Rank
system.mem_ctrls_0.memoryStateTime::IDLE     10464000                       # Time in different power states
system.mem_ctrls_0.memoryStateTime::REF     510138000                       # Time in different power states
system.mem_ctrls_0.memoryStateTime::SREF      9008250                       # Time in different power states
system.mem_ctrls_0.memoryStateTime::PRE_PDN    393552250                       # Time in different power states
system.mem_ctrls_0.memoryStateTime::ACT    2993481375                       # Time in different power states
system.mem_ctrls_0.memoryStateTime::ACT_PDN  11350700250                       # Time in different power states
system.mem_ctrls_1.actEnergy                342691440                       # Energy for activate commands per rank (pJ)
system.mem_ctrls_1.preEnergy                182171385                       # Energy for precharge commands per rank (pJ)
system.mem_ctrls_1.readEnergy               647662260                       # Energy for read commands per rank (pJ)
system.mem_ctrls_1.writeEnergy                1602540                       # Energy for write commands per rank (pJ)
system.mem_ctrls_1.refreshEnergy         1206538320.000000                       # Energy for refresh commands per rank (pJ)
system.mem_ctrls_1.actBackEnergy           1569937890                       # Energy for active background per rank (pJ)
system.mem_ctrls_1.preBackEnergy             24476160                       # Energy for precharge background per rank (pJ)
system.mem_ctrls_1.actPowerDownEnergy      5205674910                       # Energy for active power-down per rank (pJ)
system.mem_ctrls_1.prePowerDownEnergy       131131200                       # Energy for precharge power-down per rank (pJ)
system.mem_ctrls_1.selfRefreshEnergy     1900680.000000                       # Energy for self refresh per rank (pJ)
system.mem_ctrls_1.totalEnergy             9313786785                       # Total energy per rank (pJ)
system.mem_ctrls_1.averagePower            610.046299                       # Core power per rank (mW)
system.mem_ctrls_1.totalIdleTime          11760540125                       # Total Idle time Per DRAM Rank
system.mem_ctrls_1.memoryStateTime::IDLE      9980000                       # Time in different power states
system.mem_ctrls_1.memoryStateTime::REF     510392000                       # Time in different power states
system.mem_ctrls_1.memoryStateTime::SREF      3317750                       # Time in different power states
system.mem_ctrls_1.memoryStateTime::PRE_PDN    341729250                       # Time in different power states
system.mem_ctrls_1.memoryStateTime::ACT    2986432000                       # Time in different power states
system.mem_ctrls_1.memoryStateTime::ACT_PDN  11415493125                       # Time in different power states
system.pwrStateResidencyTicks::UNDEFINED  15267344125                       # Cumulative time (in ticks) in various power states
system.cpu0.branchPred.lookups                1470767                       # Number of BP lookups
system.cpu0.branchPred.condPredicted          1470767                       # Number of conditional branches predicted
system.cpu0.branchPred.condIncorrect            54608                       # Number of conditional branches incorrect
system.cpu0.branchPred.BTBLookups             1080140                       # Number of BTB lookups
system.cpu0.branchPred.BTBHits                      0                       # Number of BTB hits
system.cpu0.branchPred.BTBCorrect                   0                       # Number of correct BTB predictions (this stat may not work properly.
system.cpu0.branchPred.BTBHitPct             0.000000                       # BTB Hit Percentage
system.cpu0.branchPred.usedRAS                  35598                       # Number of times the RAS was used to get a target.
system.cpu0.branchPred.RASInCorrect              4910                       # Number of incorrect RAS predictions.
system.cpu0.branchPred.indirectLookups        1080140                       # Number of indirect predictor lookups.
system.cpu0.branchPred.indirectHits            644699                       # Number of indirect target hits.
system.cpu0.branchPred.indirectMisses          435441                       # Number of indirect misses.
system.cpu0.branchPredindirectMispredicted        18433                       # Number of mispredicted indirect branches.
system.cpu_voltage_domain.voltage                   1                       # Voltage in Volts
system.cpu_clk_domain.clock                       500                       # Clock period in ticks
system.cpu0.dtb.walker.pwrStateResidencyTicks::UNDEFINED  15267344125                       # Cumulative time (in ticks) in various power states
system.cpu0.dtb.rdAccesses                     743580                       # TLB accesses on read requests
system.cpu0.dtb.wrAccesses                      45143                       # TLB accesses on write requests
system.cpu0.dtb.rdMisses                       176216                       # TLB misses on read requests
system.cpu0.dtb.wrMisses                          763                       # TLB misses on write requests
system.cpu0.apic_clk_domain.clock                8000                       # Clock period in ticks
system.cpu0.interrupts.pwrStateResidencyTicks::UNDEFINED  15267344125                       # Cumulative time (in ticks) in various power states
system.cpu0.itb.walker.pwrStateResidencyTicks::UNDEFINED  15267344125                       # Cumulative time (in ticks) in various power states
system.cpu0.itb.rdAccesses                          0                       # TLB accesses on read requests
system.cpu0.itb.wrAccesses                    1263960                       # TLB accesses on write requests
system.cpu0.itb.rdMisses                            0                       # TLB misses on read requests
system.cpu0.itb.wrMisses                         2414                       # TLB misses on write requests
system.cpu0.workload.numSyscalls                    0                       # Number of system calls
system.cpu0.pwrStateResidencyTicks::ON    15267344125                       # Cumulative time (in ticks) in various power states
system.cpu0.numCycles                        30534688                       # number of cpu cycles simulated
system.cpu0.numWorkItemsStarted                     0                       # number of work items this cpu started
system.cpu0.numWorkItemsCompleted                   0                       # number of work items this cpu completed
system.cpu0.fetch.icacheStallCycles           1288521                       # Number of cycles fetch is stalled on an Icache miss
system.cpu0.fetch.Insts                       4218858                       # Number of instructions fetch has processed
system.cpu0.fetch.Branches                    1470767                       # Number of branches that fetch encountered
system.cpu0.fetch.predictedBranches            680297                       # Number of branches that fetch has predicted taken
system.cpu0.fetch.Cycles                     29144550                       # Number of cycles fetch has run and was not squashing or blocked
system.cpu0.fetch.SquashCycles                 110770                       # Number of cycles fetch has spent squashing
system.cpu0.fetch.TlbCycles                      1400                       # Number of cycles fetch has spent waiting for tlb
system.cpu0.fetch.MiscStallCycles                 540                       # Number of cycles fetch has spent waiting on interrupts, or bad addresses, or out of MSHRs
system.cpu0.fetch.PendingTrapStallCycles        21030                       # Number of stall cycles due to pending traps
system.cpu0.fetch.CacheLines                  1261546                       # Number of cache lines fetched
system.cpu0.fetch.IcacheSquashes                 7372                       # Number of outstanding Icache misses that were squashed
system.cpu0.fetch.ItlbSquashes                      2                       # Number of outstanding ITLB misses that were squashed
system.cpu0.fetch.rateDist::samples          30511426                       # Number of instructions fetched each cycle (Total)
system.cpu0.fetch.rateDist::mean             0.277748                       # Number of instructions fetched each cycle (Total)
system.cpu0.fetch.rateDist::stdev            1.322100                       # Number of instructions fetched each cycle (Total)
system.cpu0.fetch.rateDist::underflows              0      0.00%      0.00% # Number of instructions fetched each cycle (Total)
system.cpu0.fetch.rateDist::0                28834010     94.50%     94.50% # Number of instructions fetched each cycle (Total)
system.cpu0.fetch.rateDist::1                   17564      0.06%     94.56% # Number of instructions fetched each cycle (Total)
system.cpu0.fetch.rateDist::2                  646079      2.12%     96.68% # Number of instructions fetched each cycle (Total)
system.cpu0.fetch.rateDist::3                   21783      0.07%     96.75% # Number of instructions fetched each cycle (Total)
system.cpu0.fetch.rateDist::4                  122517      0.40%     97.15% # Number of instructions fetched each cycle (Total)
system.cpu0.fetch.rateDist::5                   49825      0.16%     97.31% # Number of instructions fetched each cycle (Total)
system.cpu0.fetch.rateDist::6                   89637      0.29%     97.61% # Number of instructions fetched each cycle (Total)
system.cpu0.fetch.rateDist::7                   17685      0.06%     97.67% # Number of instructions fetched each cycle (Total)
system.cpu0.fetch.rateDist::8                  712326      2.33%    100.00% # Number of instructions fetched each cycle (Total)
system.cpu0.fetch.rateDist::overflows               0      0.00%    100.00% # Number of instructions fetched each cycle (Total)
system.cpu0.fetch.rateDist::min_value               0                       # Number of instructions fetched each cycle (Total)
system.cpu0.fetch.rateDist::max_value               8                       # Number of instructions fetched each cycle (Total)
system.cpu0.fetch.rateDist::total            30511426                       # Number of instructions fetched each cycle (Total)
system.cpu0.fetch.branchRate                 0.048167                       # Number of branch fetches per cycle
system.cpu0.fetch.rate                       0.138166                       # Number of inst fetches per cycle
system.cpu0.decode.IdleCycles                  606541                       # Number of cycles decode is idle
system.cpu0.decode.BlockedCycles             28761344                       # Number of cycles decode is blocked
system.cpu0.decode.RunCycles                   756156                       # Number of cycles decode is running
system.cpu0.decode.UnblockCycles               332000                       # Number of cycles decode is unblocking
system.cpu0.decode.SquashCycles                 55385                       # Number of cycles decode is squashing
system.cpu0.decode.DecodedInsts               7147744                       # Number of instructions handled by decode
system.cpu0.rename.SquashCycles                 55385                       # Number of cycles rename is squashing
system.cpu0.rename.IdleCycles                  706104                       # Number of cycles rename is idle
system.cpu0.rename.BlockCycles               27493772                       # Number of cycles rename is blocking
system.cpu0.rename.serializeStallCycles         12851                       # count of cycles rename stalled for serializing inst
system.cpu0.rename.RunCycles                   911040                       # Number of cycles rename is running
system.cpu0.rename.UnblockCycles              1332274                       # Number of cycles rename is unblocking
system.cpu0.rename.RenamedInsts               6889735                       # Number of instructions processed by rename
system.cpu0.rename.ROBFullEvents                39121                       # Number of times rename has blocked due to ROB full
system.cpu0.rename.IQFullEvents               1161100                       # Number of times rename has blocked due to IQ full
system.cpu0.rename.LQFullEvents                111707                       # Number of times rename has blocked due to LQ full
system.cpu0.rename.SQFullEvents                  1418                       # Number of times rename has blocked due to SQ full
system.cpu0.rename.RenamedOperands            8241425                       # Number of destination operands rename has renamed
system.cpu0.rename.RenameLookups             19280435                       # Number of register rename lookups that rename has made
system.cpu0.rename.int_rename_lookups         8974934                       # Number of integer rename lookups
system.cpu0.rename.fp_rename_lookups            40221                       # Number of floating rename lookups
system.cpu0.rename.CommittedMaps              3501550                       # Number of HB maps that are committed
system.cpu0.rename.UndoneMaps                 4739874                       # Number of HB maps that are undone due to squashing
system.cpu0.rename.serializingInsts               218                       # count of serializing insts renamed
system.cpu0.rename.tempSerializingInsts           264                       # count of temporary serializing insts renamed
system.cpu0.rename.skidInsts                  2126522                       # count of insts added to the skid buffer
system.cpu0.memDep0.insertedLoads             1240445                       # Number of loads inserted to the mem dependence unit.
system.cpu0.memDep0.insertedStores              65094                       # Number of stores inserted to the mem dependence unit.
system.cpu0.memDep0.conflictingLoads             4973                       # Number of conflicting loads.
system.cpu0.memDep0.conflictingStores            4637                       # Number of conflicting stores.
system.cpu0.iq.iqInstsAdded                   6568213                       # Number of instructions added to the IQ (excludes non-spec)
system.cpu0.iq.iqNonSpecInstsAdded               4093                       # Number of non-speculative instructions added to the IQ
system.cpu0.iq.iqInstsIssued                  4857039                       # Number of instructions issued
system.cpu0.iq.iqSquashedInstsIssued             6040                       # Number of squashed instructions issued
system.cpu0.iq.iqSquashedInstsExamined        3661353                       # Number of squashed instructions iterated over during squash; mainly for profiling
system.cpu0.iq.iqSquashedOperandsExamined      7871156                       # Number of squashed operands that are examined and possibly removed from graph
system.cpu0.iq.iqSquashedNonSpecRemoved          4093                       # Number of squashed non-spec instructions that were removed
system.cpu0.iq.issued_per_cycle::samples     30511426                       # Number of insts issued each cycle
system.cpu0.iq.issued_per_cycle::mean        0.159188                       # Number of insts issued each cycle
system.cpu0.iq.issued_per_cycle::stdev       0.714330                       # Number of insts issued each cycle
system.cpu0.iq.issued_per_cycle::underflows            0      0.00%      0.00% # Number of insts issued each cycle
system.cpu0.iq.issued_per_cycle::0           28424525     93.16%     93.16% # Number of insts issued each cycle
system.cpu0.iq.issued_per_cycle::1             878561      2.88%     96.04% # Number of insts issued each cycle
system.cpu0.iq.issued_per_cycle::2             452643      1.48%     97.52% # Number of insts issued each cycle
system.cpu0.iq.issued_per_cycle::3             305668      1.00%     98.53% # Number of insts issued each cycle
system.cpu0.iq.issued_per_cycle::4             262942      0.86%     99.39% # Number of insts issued each cycle
system.cpu0.iq.issued_per_cycle::5              79284      0.26%     99.65% # Number of insts issued each cycle
system.cpu0.iq.issued_per_cycle::6              64904      0.21%     99.86% # Number of insts issued each cycle
system.cpu0.iq.issued_per_cycle::7              24616      0.08%     99.94% # Number of insts issued each cycle
system.cpu0.iq.issued_per_cycle::8              18283      0.06%    100.00% # Number of insts issued each cycle
system.cpu0.iq.issued_per_cycle::overflows            0      0.00%    100.00% # Number of insts issued each cycle
system.cpu0.iq.issued_per_cycle::min_value            0                       # Number of insts issued each cycle
system.cpu0.iq.issued_per_cycle::max_value            8                       # Number of insts issued each cycle
system.cpu0.iq.issued_per_cycle::total       30511426                       # Number of insts issued each cycle
system.cpu0.iq.fu_full::No_OpClass                  0      0.00%      0.00% # attempts to use FU when none available
system.cpu0.iq.fu_full::IntAlu                  10825     70.10%     70.10% # attempts to use FU when none available
system.cpu0.iq.fu_full::IntMult                     0      0.00%     70.10% # attempts to use FU when none available
system.cpu0.iq.fu_full::IntDiv                      0      0.00%     70.10% # attempts to use FU when none available
system.cpu0.iq.fu_full::FloatAdd                 1106      7.16%     77.26% # attempts to use FU when none available
system.cpu0.iq.fu_full::FloatCmp                    0      0.00%     77.26% # attempts to use FU when none available
system.cpu0.iq.fu_full::FloatCvt                    0      0.00%     77.26% # attempts to use FU when none available
system.cpu0.iq.fu_full::FloatMult                   0      0.00%     77.26% # attempts to use FU when none available
system.cpu0.iq.fu_full::FloatMultAcc                0      0.00%     77.26% # attempts to use FU when none available
system.cpu0.iq.fu_full::FloatDiv                    0      0.00%     77.26% # attempts to use FU when none available
system.cpu0.iq.fu_full::FloatMisc                   0      0.00%     77.26% # attempts to use FU when none available
system.cpu0.iq.fu_full::FloatSqrt                   0      0.00%     77.26% # attempts to use FU when none available
system.cpu0.iq.fu_full::SimdAdd                     0      0.00%     77.26% # attempts to use FU when none available
system.cpu0.iq.fu_full::SimdAddAcc                  0      0.00%     77.26% # attempts to use FU when none available
system.cpu0.iq.fu_full::SimdAlu                     0      0.00%     77.26% # attempts to use FU when none available
system.cpu0.iq.fu_full::SimdCmp                     0      0.00%     77.26% # attempts to use FU when none available
system.cpu0.iq.fu_full::SimdCvt                     0      0.00%     77.26% # attempts to use FU when none available
system.cpu0.iq.fu_full::SimdMisc                    0      0.00%     77.26% # attempts to use FU when none available
system.cpu0.iq.fu_full::SimdMult                    0      0.00%     77.26% # attempts to use FU when none available
system.cpu0.iq.fu_full::SimdMultAcc                 0      0.00%     77.26% # attempts to use FU when none available
system.cpu0.iq.fu_full::SimdShift                   0      0.00%     77.26% # attempts to use FU when none available
system.cpu0.iq.fu_full::SimdShiftAcc                0      0.00%     77.26% # attempts to use FU when none available
system.cpu0.iq.fu_full::SimdSqrt                    0      0.00%     77.26% # attempts to use FU when none available
system.cpu0.iq.fu_full::SimdFloatAdd                0      0.00%     77.26% # attempts to use FU when none available
system.cpu0.iq.fu_full::SimdFloatAlu                0      0.00%     77.26% # attempts to use FU when none available
system.cpu0.iq.fu_full::SimdFloatCmp                0      0.00%     77.26% # attempts to use FU when none available
system.cpu0.iq.fu_full::SimdFloatCvt                0      0.00%     77.26% # attempts to use FU when none available
system.cpu0.iq.fu_full::SimdFloatDiv                0      0.00%     77.26% # attempts to use FU when none available
system.cpu0.iq.fu_full::SimdFloatMisc               0      0.00%     77.26% # attempts to use FU when none available
system.cpu0.iq.fu_full::SimdFloatMult               0      0.00%     77.26% # attempts to use FU when none available
system.cpu0.iq.fu_full::SimdFloatMultAcc            0      0.00%     77.26% # attempts to use FU when none available
system.cpu0.iq.fu_full::SimdFloatSqrt               0      0.00%     77.26% # attempts to use FU when none available
system.cpu0.iq.fu_full::MemRead                  3031     19.63%     96.89% # attempts to use FU when none available
system.cpu0.iq.fu_full::MemWrite                  252      1.63%     98.52% # attempts to use FU when none available
system.cpu0.iq.fu_full::FloatMemRead              224      1.45%     99.97% # attempts to use FU when none available
system.cpu0.iq.fu_full::FloatMemWrite               4      0.03%    100.00% # attempts to use FU when none available
system.cpu0.iq.fu_full::IprAccess                   0      0.00%    100.00% # attempts to use FU when none available
system.cpu0.iq.fu_full::InstPrefetch                0      0.00%    100.00% # attempts to use FU when none available
system.cpu0.iq.FU_type_0::No_OpClass            13802      0.28%      0.28% # Type of FU issued
system.cpu0.iq.FU_type_0::IntAlu              3996592     82.28%     82.57% # Type of FU issued
system.cpu0.iq.FU_type_0::IntMult                 703      0.01%     82.58% # Type of FU issued
system.cpu0.iq.FU_type_0::IntDiv                10454      0.22%     82.80% # Type of FU issued
system.cpu0.iq.FU_type_0::FloatAdd              14095      0.29%     83.09% # Type of FU issued
system.cpu0.iq.FU_type_0::FloatCmp                  0      0.00%     83.09% # Type of FU issued
system.cpu0.iq.FU_type_0::FloatCvt                  0      0.00%     83.09% # Type of FU issued
system.cpu0.iq.FU_type_0::FloatMult                 0      0.00%     83.09% # Type of FU issued
system.cpu0.iq.FU_type_0::FloatMultAcc              0      0.00%     83.09% # Type of FU issued
system.cpu0.iq.FU_type_0::FloatDiv                  0      0.00%     83.09% # Type of FU issued
system.cpu0.iq.FU_type_0::FloatMisc                 0      0.00%     83.09% # Type of FU issued
system.cpu0.iq.FU_type_0::FloatSqrt                 0      0.00%     83.09% # Type of FU issued
system.cpu0.iq.FU_type_0::SimdAdd                   0      0.00%     83.09% # Type of FU issued
system.cpu0.iq.FU_type_0::SimdAddAcc                0      0.00%     83.09% # Type of FU issued
system.cpu0.iq.FU_type_0::SimdAlu                   0      0.00%     83.09% # Type of FU issued
system.cpu0.iq.FU_type_0::SimdCmp                   0      0.00%     83.09% # Type of FU issued
system.cpu0.iq.FU_type_0::SimdCvt                   0      0.00%     83.09% # Type of FU issued
system.cpu0.iq.FU_type_0::SimdMisc                  0      0.00%     83.09% # Type of FU issued
system.cpu0.iq.FU_type_0::SimdMult                  0      0.00%     83.09% # Type of FU issued
system.cpu0.iq.FU_type_0::SimdMultAcc               0      0.00%     83.09% # Type of FU issued
system.cpu0.iq.FU_type_0::SimdShift                 0      0.00%     83.09% # Type of FU issued
system.cpu0.iq.FU_type_0::SimdShiftAcc              0      0.00%     83.09% # Type of FU issued
system.cpu0.iq.FU_type_0::SimdSqrt                  0      0.00%     83.09% # Type of FU issued
system.cpu0.iq.FU_type_0::SimdFloatAdd              0      0.00%     83.09% # Type of FU issued
system.cpu0.iq.FU_type_0::SimdFloatAlu              0      0.00%     83.09% # Type of FU issued
system.cpu0.iq.FU_type_0::SimdFloatCmp              0      0.00%     83.09% # Type of FU issued
system.cpu0.iq.FU_type_0::SimdFloatCvt              0      0.00%     83.09% # Type of FU issued
system.cpu0.iq.FU_type_0::SimdFloatDiv              0      0.00%     83.09% # Type of FU issued
system.cpu0.iq.FU_type_0::SimdFloatMisc             0      0.00%     83.09% # Type of FU issued
system.cpu0.iq.FU_type_0::SimdFloatMult             0      0.00%     83.09% # Type of FU issued
system.cpu0.iq.FU_type_0::SimdFloatMultAcc            0      0.00%     83.09% # Type of FU issued
system.cpu0.iq.FU_type_0::SimdFloatSqrt             0      0.00%     83.09% # Type of FU issued
system.cpu0.iq.FU_type_0::MemRead              769638     15.85%     98.93% # Type of FU issued
system.cpu0.iq.FU_type_0::MemWrite              48314      0.99%     99.93% # Type of FU issued
system.cpu0.iq.FU_type_0::FloatMemRead           3421      0.07%    100.00% # Type of FU issued
system.cpu0.iq.FU_type_0::FloatMemWrite            20      0.00%    100.00% # Type of FU issued
system.cpu0.iq.FU_type_0::IprAccess                 0      0.00%    100.00% # Type of FU issued
system.cpu0.iq.FU_type_0::InstPrefetch              0      0.00%    100.00% # Type of FU issued
system.cpu0.iq.FU_type_0::total               4857039                       # Type of FU issued
system.cpu0.iq.rate                          0.159066                       # Inst issue rate
system.cpu0.iq.fu_busy_cnt                      15442                       # FU busy when requested
system.cpu0.iq.fu_busy_rate                  0.003179                       # FU busy rate (busy events/executed inst)
system.cpu0.iq.int_inst_queue_reads          40210437                       # Number of integer instruction queue reads
system.cpu0.iq.int_inst_queue_writes         10198362                       # Number of integer instruction queue writes
system.cpu0.iq.int_inst_queue_wakeup_accesses      4680834                       # Number of integer instruction queue wakeup accesses
system.cpu0.iq.fp_inst_queue_reads              36549                       # Number of floating instruction queue reads
system.cpu0.iq.fp_inst_queue_writes             35302                       # Number of floating instruction queue writes
system.cpu0.iq.fp_inst_queue_wakeup_accesses        15534                       # Number of floating instruction queue wakeup accesses
system.cpu0.iq.vec_inst_queue_reads                 0                       # Number of vector instruction queue reads
system.cpu0.iq.vec_inst_queue_writes                0                       # Number of vector instruction queue writes
system.cpu0.iq.vec_inst_queue_wakeup_accesses            0                       # Number of vector instruction queue wakeup accesses
system.cpu0.iq.int_alu_accesses               4839806                       # Number of integer alu accesses
system.cpu0.iq.fp_alu_accesses                  18873                       # Number of floating point alu accesses
system.cpu0.iq.vec_alu_accesses                     0                       # Number of vector alu accesses
system.cpu0.iew.lsq.thread0.forwLoads            4580                       # Number of loads that had data forwarded from stores
system.cpu0.iew.lsq.thread0.invAddrLoads            0                       # Number of loads ignored due to an invalid address
system.cpu0.iew.lsq.thread0.squashedLoads       697245                       # Number of loads squashed
system.cpu0.iew.lsq.thread0.ignoredResponses          120                       # Number of memory responses ignored because the instruction is squashed
system.cpu0.iew.lsq.thread0.memOrderViolation            6                       # Number of memory ordering violations
system.cpu0.iew.lsq.thread0.squashedStores        34846                       # Number of stores squashed
system.cpu0.iew.lsq.thread0.invAddrSwpfs            0                       # Number of software prefetches ignored due to an invalid address
system.cpu0.iew.lsq.thread0.blockedLoads            0                       # Number of blocked loads due to partial load-store forwarding
system.cpu0.iew.lsq.thread0.rescheduledLoads           41                       # Number of loads that were rescheduled
system.cpu0.iew.lsq.thread0.cacheBlocked         1821                       # Number of times an access to memory failed due to the cache being blocked
system.cpu0.iew.iewIdleCycles                       0                       # Number of cycles IEW is idle
system.cpu0.iew.iewSquashCycles                 55385                       # Number of cycles IEW is squashing
system.cpu0.iew.iewBlockCycles               25970033                       # Number of cycles IEW is blocking
system.cpu0.iew.iewUnblockCycles               259352                       # Number of cycles IEW is unblocking
system.cpu0.iew.iewDispatchedInsts            6572306                       # Number of instructions dispatched to IQ
system.cpu0.iew.iewDispSquashedInsts             2828                       # Number of squashed instructions skipped by dispatch
system.cpu0.iew.iewDispLoadInsts              1240445                       # Number of dispatched load instructions
system.cpu0.iew.iewDispStoreInsts               65094                       # Number of dispatched store instructions
system.cpu0.iew.iewDispNonSpecInsts              1499                       # Number of dispatched non-speculative instructions
system.cpu0.iew.iewIQFullEvents                 14089                       # Number of times the IQ has become full, causing a stall
system.cpu0.iew.iewLSQFullEvents                26412                       # Number of times the LSQ has become full, causing a stall
system.cpu0.iew.memOrderViolationEvents             6                       # Number of memory order violations
system.cpu0.iew.predictedTakenIncorrect         30098                       # Number of branches that were predicted taken incorrectly
system.cpu0.iew.predictedNotTakenIncorrect        31158                       # Number of branches that were predicted not taken incorrectly
system.cpu0.iew.branchMispredicts               61256                       # Number of branch mispredicts detected at execute
system.cpu0.iew.iewExecutedInsts              4781896                       # Number of executed instructions
system.cpu0.iew.iewExecLoadInsts               743302                       # Number of load instructions executed
system.cpu0.iew.iewExecSquashedInsts            75143                       # Number of squashed instructions skipped in execute
system.cpu0.iew.exec_swp                            0                       # number of swp insts executed
system.cpu0.iew.exec_nop                            0                       # number of nop insts executed
system.cpu0.iew.exec_refs                      788439                       # number of memory reference insts executed
system.cpu0.iew.exec_branches                  617515                       # Number of branches executed
system.cpu0.iew.exec_stores                     45137                       # Number of stores executed
system.cpu0.iew.exec_rate                    0.156605                       # Inst execution rate
system.cpu0.iew.wb_sent                       4709985                       # cumulative count of insts sent to commit
system.cpu0.iew.wb_count                      4696368                       # cumulative count of insts written-back
system.cpu0.iew.wb_producers                  3374877                       # num instructions producing a value
system.cpu0.iew.wb_consumers                  5527513                       # num instructions consuming a value
system.cpu0.iew.wb_rate                      0.153804                       # insts written-back per cycle
system.cpu0.iew.wb_fanout                    0.610560                       # average fanout of values written-back
system.cpu0.commit.commitSquashedInsts        3661695                       # The number of squashed insts skipped by commit
system.cpu0.commit.branchMispredicts            55384                       # The number of times a branch was mispredicted
system.cpu0.commit.committed_per_cycle::samples     30001936                       # Number of insts commited each cycle
system.cpu0.commit.committed_per_cycle::mean     0.097026                       # Number of insts commited each cycle
system.cpu0.commit.committed_per_cycle::stdev     0.570256                       # Number of insts commited each cycle
system.cpu0.commit.committed_per_cycle::underflows            0      0.00%      0.00% # Number of insts commited each cycle
system.cpu0.commit.committed_per_cycle::0     28727265     95.75%     95.75% # Number of insts commited each cycle
system.cpu0.commit.committed_per_cycle::1       582741      1.94%     97.69% # Number of insts commited each cycle
system.cpu0.commit.committed_per_cycle::2       150868      0.50%     98.20% # Number of insts commited each cycle
system.cpu0.commit.committed_per_cycle::3       395828      1.32%     99.52% # Number of insts commited each cycle
system.cpu0.commit.committed_per_cycle::4        53032      0.18%     99.69% # Number of insts commited each cycle
system.cpu0.commit.committed_per_cycle::5        31791      0.11%     99.80% # Number of insts commited each cycle
system.cpu0.commit.committed_per_cycle::6         5630      0.02%     99.82% # Number of insts commited each cycle
system.cpu0.commit.committed_per_cycle::7         4119      0.01%     99.83% # Number of insts commited each cycle
system.cpu0.commit.committed_per_cycle::8        50662      0.17%    100.00% # Number of insts commited each cycle
system.cpu0.commit.committed_per_cycle::overflows            0      0.00%    100.00% # Number of insts commited each cycle
system.cpu0.commit.committed_per_cycle::min_value            0                       # Number of insts commited each cycle
system.cpu0.commit.committed_per_cycle::max_value            8                       # Number of insts commited each cycle
system.cpu0.commit.committed_per_cycle::total     30001936                       # Number of insts commited each cycle
system.cpu0.commit.committedInsts             1457970                       # Number of instructions committed
system.cpu0.commit.committedOps               2910953                       # Number of ops (including micro ops) committed
system.cpu0.commit.swp_count                        0                       # Number of s/w prefetches committed
system.cpu0.commit.refs                        573448                       # Number of memory references committed
system.cpu0.commit.loads                       543200                       # Number of loads committed
system.cpu0.commit.membars                          0                       # Number of memory barriers committed
system.cpu0.commit.branches                    523157                       # Number of branches committed
system.cpu0.commit.vec_insts                        0                       # Number of committed Vector instructions.
system.cpu0.commit.fp_insts                     12182                       # Number of committed floating point instructions.
system.cpu0.commit.int_insts                  2898591                       # Number of committed integer instructions.
system.cpu0.commit.function_calls                5350                       # Number of function calls committed.
system.cpu0.commit.op_class_0::No_OpClass         3736      0.13%      0.13% # Class of committed instruction
system.cpu0.commit.op_class_0::IntAlu         2313985     79.49%     79.62% # Class of committed instruction
system.cpu0.commit.op_class_0::IntMult            214      0.01%     79.63% # Class of committed instruction
system.cpu0.commit.op_class_0::IntDiv            9166      0.31%     79.94% # Class of committed instruction
system.cpu0.commit.op_class_0::FloatAdd         10404      0.36%     80.30% # Class of committed instruction
system.cpu0.commit.op_class_0::FloatCmp             0      0.00%     80.30% # Class of committed instruction
system.cpu0.commit.op_class_0::FloatCvt             0      0.00%     80.30% # Class of committed instruction
system.cpu0.commit.op_class_0::FloatMult            0      0.00%     80.30% # Class of committed instruction
system.cpu0.commit.op_class_0::FloatMultAcc            0      0.00%     80.30% # Class of committed instruction
system.cpu0.commit.op_class_0::FloatDiv             0      0.00%     80.30% # Class of committed instruction
system.cpu0.commit.op_class_0::FloatMisc            0      0.00%     80.30% # Class of committed instruction
system.cpu0.commit.op_class_0::FloatSqrt            0      0.00%     80.30% # Class of committed instruction
system.cpu0.commit.op_class_0::SimdAdd              0      0.00%     80.30% # Class of committed instruction
system.cpu0.commit.op_class_0::SimdAddAcc            0      0.00%     80.30% # Class of committed instruction
system.cpu0.commit.op_class_0::SimdAlu              0      0.00%     80.30% # Class of committed instruction
system.cpu0.commit.op_class_0::SimdCmp              0      0.00%     80.30% # Class of committed instruction
system.cpu0.commit.op_class_0::SimdCvt              0      0.00%     80.30% # Class of committed instruction
system.cpu0.commit.op_class_0::SimdMisc             0      0.00%     80.30% # Class of committed instruction
system.cpu0.commit.op_class_0::SimdMult             0      0.00%     80.30% # Class of committed instruction
system.cpu0.commit.op_class_0::SimdMultAcc            0      0.00%     80.30% # Class of committed instruction
system.cpu0.commit.op_class_0::SimdShift            0      0.00%     80.30% # Class of committed instruction
system.cpu0.commit.op_class_0::SimdShiftAcc            0      0.00%     80.30% # Class of committed instruction
system.cpu0.commit.op_class_0::SimdSqrt             0      0.00%     80.30% # Class of committed instruction
system.cpu0.commit.op_class_0::SimdFloatAdd            0      0.00%     80.30% # Class of committed instruction
system.cpu0.commit.op_class_0::SimdFloatAlu            0      0.00%     80.30% # Class of committed instruction
system.cpu0.commit.op_class_0::SimdFloatCmp            0      0.00%     80.30% # Class of committed instruction
system.cpu0.commit.op_class_0::SimdFloatCvt            0      0.00%     80.30% # Class of committed instruction
system.cpu0.commit.op_class_0::SimdFloatDiv            0      0.00%     80.30% # Class of committed instruction
system.cpu0.commit.op_class_0::SimdFloatMisc            0      0.00%     80.30% # Class of committed instruction
system.cpu0.commit.op_class_0::SimdFloatMult            0      0.00%     80.30% # Class of committed instruction
system.cpu0.commit.op_class_0::SimdFloatMultAcc            0      0.00%     80.30% # Class of committed instruction
system.cpu0.commit.op_class_0::SimdFloatSqrt            0      0.00%     80.30% # Class of committed instruction
system.cpu0.commit.op_class_0::MemRead         541422     18.60%     98.90% # Class of committed instruction
system.cpu0.commit.op_class_0::MemWrite         30248      1.04%     99.94% # Class of committed instruction
system.cpu0.commit.op_class_0::FloatMemRead         1778      0.06%    100.00% # Class of committed instruction
system.cpu0.commit.op_class_0::FloatMemWrite            0      0.00%    100.00% # Class of committed instruction
system.cpu0.commit.op_class_0::IprAccess            0      0.00%    100.00% # Class of committed instruction
system.cpu0.commit.op_class_0::InstPrefetch            0      0.00%    100.00% # Class of committed instruction
system.cpu0.commit.op_class_0::total          2910953                       # Class of committed instruction
system.cpu0.commit.bw_lim_events                50662                       # number cycles where commit BW limit reached
system.cpu0.rob.rob_reads                    36523922                       # The number of ROB reads
system.cpu0.rob.rob_writes                   13656323                       # The number of ROB writes
system.cpu0.timesIdled                            186                       # Number of times that the entire CPU went into an idle state and unscheduled itself
system.cpu0.idleCycles                          23262                       # Total number of cycles that the CPU has spent unscheduled due to idling
system.cpu0.committedInsts                    1457970                       # Number of Instructions Simulated
system.cpu0.committedOps                      2910953                       # Number of Ops (including micro ops) Simulated
system.cpu0.cpi                             20.943290                       # CPI: Cycles Per Instruction
system.cpu0.cpi_total                       20.943290                       # CPI: Total CPI of All Threads
system.cpu0.ipc                              0.047748                       # IPC: Instructions Per Cycle
system.cpu0.ipc_total                        0.047748                       # IPC: Total IPC of All Threads
system.cpu0.int_regfile_reads                 4907223                       # number of integer regfile reads
system.cpu0.int_regfile_writes                4041331                       # number of integer regfile writes
system.cpu0.fp_regfile_reads                    27460                       # number of floating regfile reads
system.cpu0.fp_regfile_writes                   13715                       # number of floating regfile writes
system.cpu0.cc_regfile_reads                  3321204                       # number of cc regfile reads
system.cpu0.cc_regfile_writes                 1384260                       # number of cc regfile writes
system.cpu0.misc_regfile_reads                2544627                       # number of misc regfile reads
system.cpu0.dcache.tags.pwrStateResidencyTicks::UNDEFINED  15267344125                       # Cumulative time (in ticks) in various power states
system.cpu0.dcache.tags.replacements           288639                       # number of replacements
system.cpu0.dcache.tags.tagsinuse                1024                       # Cycle average of tags in use
system.cpu0.dcache.tags.total_refs             269478                       # Total number of references to valid blocks.
system.cpu0.dcache.tags.sampled_refs           288639                       # Sample count of references to valid blocks.
system.cpu0.dcache.tags.avg_refs             0.933616                       # Average number of references to valid blocks.
system.cpu0.dcache.tags.warmup_cycle                0                       # Cycle when the warmup percentage was hit.
system.cpu0.dcache.tags.occ_blocks::cpu0.data         1024                       # Average occupied blocks per requestor
system.cpu0.dcache.tags.occ_percent::cpu0.data            1                       # Average percentage of cache occupancy
system.cpu0.dcache.tags.occ_percent::total            1                       # Average percentage of cache occupancy
system.cpu0.dcache.tags.occ_task_id_blocks::1024         1024                       # Occupied blocks per task id
system.cpu0.dcache.tags.age_task_id_blocks_1024::0          137                       # Occupied blocks per task id
system.cpu0.dcache.tags.age_task_id_blocks_1024::1          879                       # Occupied blocks per task id
system.cpu0.dcache.tags.age_task_id_blocks_1024::2            8                       # Occupied blocks per task id
system.cpu0.dcache.tags.occ_task_id_percent::1024            1                       # Percentage of cache occupancy per task id
system.cpu0.dcache.tags.tag_accesses          3346323                       # Number of tag accesses
system.cpu0.dcache.tags.data_accesses         3346323                       # Number of data accesses
system.cpu0.dcache.pwrStateResidencyTicks::UNDEFINED  15267344125                       # Cumulative time (in ticks) in various power states
system.cpu0.dcache.ReadReq_hits::cpu0.data       239899                       # number of ReadReq hits
system.cpu0.dcache.ReadReq_hits::total         239899                       # number of ReadReq hits
system.cpu0.dcache.WriteReq_hits::cpu0.data        29146                       # number of WriteReq hits
system.cpu0.dcache.WriteReq_hits::total         29146                       # number of WriteReq hits
system.cpu0.dcache.demand_hits::cpu0.data       269045                       # number of demand (read+write) hits
system.cpu0.dcache.demand_hits::total          269045                       # number of demand (read+write) hits
system.cpu0.dcache.overall_hits::cpu0.data       269045                       # number of overall hits
system.cpu0.dcache.overall_hits::total         269045                       # number of overall hits
system.cpu0.dcache.ReadReq_misses::cpu0.data       494274                       # number of ReadReq misses
system.cpu0.dcache.ReadReq_misses::total       494274                       # number of ReadReq misses
system.cpu0.dcache.WriteReq_misses::cpu0.data         1102                       # number of WriteReq misses
system.cpu0.dcache.WriteReq_misses::total         1102                       # number of WriteReq misses
system.cpu0.dcache.demand_misses::cpu0.data       495376                       # number of demand (read+write) misses
system.cpu0.dcache.demand_misses::total        495376                       # number of demand (read+write) misses
system.cpu0.dcache.overall_misses::cpu0.data       495376                       # number of overall misses
system.cpu0.dcache.overall_misses::total       495376                       # number of overall misses
system.cpu0.dcache.ReadReq_miss_latency::cpu0.data  33131687000                       # number of ReadReq miss cycles
system.cpu0.dcache.ReadReq_miss_latency::total  33131687000                       # number of ReadReq miss cycles
system.cpu0.dcache.WriteReq_miss_latency::cpu0.data     42694497                       # number of WriteReq miss cycles
system.cpu0.dcache.WriteReq_miss_latency::total     42694497                       # number of WriteReq miss cycles
system.cpu0.dcache.demand_miss_latency::cpu0.data  33174381497                       # number of demand (read+write) miss cycles
system.cpu0.dcache.demand_miss_latency::total  33174381497                       # number of demand (read+write) miss cycles
system.cpu0.dcache.overall_miss_latency::cpu0.data  33174381497                       # number of overall miss cycles
system.cpu0.dcache.overall_miss_latency::total  33174381497                       # number of overall miss cycles
system.cpu0.dcache.ReadReq_accesses::cpu0.data       734173                       # number of ReadReq accesses(hits+misses)
system.cpu0.dcache.ReadReq_accesses::total       734173                       # number of ReadReq accesses(hits+misses)
system.cpu0.dcache.WriteReq_accesses::cpu0.data        30248                       # number of WriteReq accesses(hits+misses)
system.cpu0.dcache.WriteReq_accesses::total        30248                       # number of WriteReq accesses(hits+misses)
system.cpu0.dcache.demand_accesses::cpu0.data       764421                       # number of demand (read+write) accesses
system.cpu0.dcache.demand_accesses::total       764421                       # number of demand (read+write) accesses
system.cpu0.dcache.overall_accesses::cpu0.data       764421                       # number of overall (read+write) accesses
system.cpu0.dcache.overall_accesses::total       764421                       # number of overall (read+write) accesses
system.cpu0.dcache.ReadReq_miss_rate::cpu0.data     0.673239                       # miss rate for ReadReq accesses
system.cpu0.dcache.ReadReq_miss_rate::total     0.673239                       # miss rate for ReadReq accesses
system.cpu0.dcache.WriteReq_miss_rate::cpu0.data     0.036432                       # miss rate for WriteReq accesses
system.cpu0.dcache.WriteReq_miss_rate::total     0.036432                       # miss rate for WriteReq accesses
system.cpu0.dcache.demand_miss_rate::cpu0.data     0.648041                       # miss rate for demand accesses
system.cpu0.dcache.demand_miss_rate::total     0.648041                       # miss rate for demand accesses
system.cpu0.dcache.overall_miss_rate::cpu0.data     0.648041                       # miss rate for overall accesses
system.cpu0.dcache.overall_miss_rate::total     0.648041                       # miss rate for overall accesses
system.cpu0.dcache.ReadReq_avg_miss_latency::cpu0.data 67031.013163                       # average ReadReq miss latency
system.cpu0.dcache.ReadReq_avg_miss_latency::total 67031.013163                       # average ReadReq miss latency
system.cpu0.dcache.WriteReq_avg_miss_latency::cpu0.data 38742.737750                       # average WriteReq miss latency
system.cpu0.dcache.WriteReq_avg_miss_latency::total 38742.737750                       # average WriteReq miss latency
system.cpu0.dcache.demand_avg_miss_latency::cpu0.data 66968.083833                       # average overall miss latency
system.cpu0.dcache.demand_avg_miss_latency::total 66968.083833                       # average overall miss latency
system.cpu0.dcache.overall_avg_miss_latency::cpu0.data 66968.083833                       # average overall miss latency
system.cpu0.dcache.overall_avg_miss_latency::total 66968.083833                       # average overall miss latency
[...]
system.l2.ReadSharedReq_hits::cpu0.data        105999                       # number of ReadSharedReq hits
system.l2.ReadSharedReq_hits::total            105999                       # number of ReadSharedReq hits
system.l2.demand_hits::cpu0.data               106805                       # number of demand (read+write) hits
system.l2.demand_hits::total                   106805                       # number of demand (read+write) hits
system.l2.overall_hits::cpu0.data              106805                       # number of overall hits
system.l2.overall_hits::total                  106805                       # number of overall hits
system.l2.ReadExReq_misses::cpu0.data             293                       # number of ReadExReq misses
system.l2.ReadExReq_misses::total                 293                       # number of ReadExReq misses
system.l2.ReadSharedReq_misses::cpu0.data       181541                       # number of ReadSharedReq misses
system.l2.ReadSharedReq_misses::total          181541                       # number of ReadSharedReq misses
system.l2.demand_misses::cpu0.data             181834                       # number of demand (read+write) misses
system.l2.demand_misses::total                 181834                       # number of demand (read+write) misses
system.l2.overall_misses::cpu0.data            181834                       # number of overall misses
system.l2.overall_misses::total                181834                       # number of overall misses
system.l2.ReadExReq_miss_latency::cpu0.data     30585500                       # number of ReadExReq miss cycles
system.l2.ReadExReq_miss_latency::total      30585500                       # number of ReadExReq miss cycles
system.l2.ReadSharedReq_miss_latency::cpu0.data  17324764500                       # number of ReadSharedReq miss cycles
system.l2.ReadSharedReq_miss_latency::total  17324764500                       # number of ReadSharedReq miss cycles
system.l2.demand_miss_latency::cpu0.data  17355350000                       # number of demand (read+write) miss cycles
system.l2.demand_miss_latency::total      17355350000                       # number of demand (read+write) miss cycles
system.l2.overall_miss_latency::cpu0.data  17355350000                       # number of overall miss cycles
system.l2.overall_miss_latency::total     17355350000                       # number of overall miss cycles
system.l2.WritebackDirty_accesses::writebacks         3210                       # number of WritebackDirty accesses(hits+misses)
system.l2.WritebackDirty_accesses::total         3210                       # number of WritebackDirty accesses(hits+misses)
system.l2.ReadExReq_accesses::cpu0.data          1099                       # number of ReadExReq accesses(hits+misses)
system.l2.ReadExReq_accesses::total              1099                       # number of ReadExReq accesses(hits+misses)
system.l2.ReadSharedReq_accesses::cpu0.data       287540                       # number of ReadSharedReq accesses(hits+misses)
system.l2.ReadSharedReq_accesses::total        287540                       # number of ReadSharedReq accesses(hits+misses)
system.l2.demand_accesses::cpu0.data           288639                       # number of demand (read+write) accesses
system.l2.demand_accesses::total               288639                       # number of demand (read+write) accesses
system.l2.overall_accesses::cpu0.data          288639                       # number of overall (read+write) accesses
system.l2.overall_accesses::total              288639                       # number of overall (read+write) accesses
system.l2.ReadExReq_miss_rate::cpu0.data     0.266606                       # miss rate for ReadExReq accesses
system.l2.ReadExReq_miss_rate::total         0.266606                       # miss rate for ReadExReq accesses
system.l2.ReadSharedReq_miss_rate::cpu0.data     0.631359                       # miss rate for ReadSharedReq accesses
system.l2.ReadSharedReq_miss_rate::total     0.631359                       # miss rate for ReadSharedReq accesses
system.l2.demand_miss_rate::cpu0.data        0.629970                       # miss rate for demand accesses
system.l2.demand_miss_rate::total            0.629970                       # miss rate for demand accesses
system.l2.overall_miss_rate::cpu0.data       0.629970                       # miss rate for overall accesses
system.l2.overall_miss_rate::total           0.629970                       # miss rate for overall accesses
system.l2.ReadExReq_avg_miss_latency::cpu0.data 104387.372014                       # average ReadExReq miss latency
system.l2.ReadExReq_avg_miss_latency::total 104387.372014                       # average ReadExReq miss latency
system.l2.ReadSharedReq_avg_miss_latency::cpu0.data 95431.690362                       # average ReadSharedReq miss latency
system.l2.ReadSharedReq_avg_miss_latency::total 95431.690362                       # average ReadSharedReq miss latency
system.l2.demand_avg_miss_latency::cpu0.data 95446.121187                       # average overall miss latency
system.l2.demand_avg_miss_latency::total 95446.121187                       # average overall miss latency
system.l2.overall_avg_miss_latency::cpu0.data 95446.121187                       # average overall miss latency
system.l2.overall_avg_miss_latency::total 95446.121187                       # average overall miss latency
system.l2.blocked_cycles::no_mshrs                  0                       # number of cycles access was blocked
system.l2.blocked_cycles::no_targets                0                       # number of cycles access was blocked
system.l2.blocked::no_mshrs                         0                       # number of cycles access was blocked
system.l2.blocked::no_targets                       0                       # number of cycles access was blocked
system.l2.avg_blocked_cycles::no_mshrs            nan                       # average number of cycles each access was blocked
system.l2.avg_blocked_cycles::no_targets          nan                       # average number of cycles each access was blocked
system.l2.writebacks::writebacks                  388                       # number of writebacks
system.l2.writebacks::total                       388                       # number of writebacks
system.l2.ReadExReq_mshr_misses::cpu0.data          293                       # number of ReadExReq MSHR misses
system.l2.ReadExReq_mshr_misses::total            293                       # number of ReadExReq MSHR misses
system.l2.ReadSharedReq_mshr_misses::cpu0.data       181541                       # number of ReadSharedReq MSHR misses
system.l2.ReadSharedReq_mshr_misses::total       181541                       # number of ReadSharedReq MSHR misses
system.l2.demand_mshr_misses::cpu0.data        181834                       # number of demand (read+write) MSHR misses
system.l2.demand_mshr_misses::total            181834                       # number of demand (read+write) MSHR misses
system.l2.overall_mshr_misses::cpu0.data       181834                       # number of overall MSHR misses
system.l2.overall_mshr_misses::total           181834                       # number of overall MSHR misses
system.l2.ReadExReq_mshr_miss_latency::cpu0.data     27655500                       # number of ReadExReq MSHR miss cycles
system.l2.ReadExReq_mshr_miss_latency::total     27655500                       # number of ReadExReq MSHR miss cycles
system.l2.ReadSharedReq_mshr_miss_latency::cpu0.data  15509354500                       # number of ReadSharedReq MSHR miss cycles
system.l2.ReadSharedReq_mshr_miss_latency::total  15509354500                       # number of ReadSharedReq MSHR miss cycles
system.l2.demand_mshr_miss_latency::cpu0.data  15537010000                       # number of demand (read+write) MSHR miss cycles
system.l2.demand_mshr_miss_latency::total  15537010000                       # number of demand (read+write) MSHR miss cycles
system.l2.overall_mshr_miss_latency::cpu0.data  15537010000                       # number of overall MSHR miss cycles
system.l2.overall_mshr_miss_latency::total  15537010000                       # number of overall MSHR miss cycles
system.l2.ReadExReq_mshr_miss_rate::cpu0.data     0.266606                       # mshr miss rate for ReadExReq accesses
system.l2.ReadExReq_mshr_miss_rate::total     0.266606                       # mshr miss rate for ReadExReq accesses
system.l2.ReadSharedReq_mshr_miss_rate::cpu0.data     0.631359                       # mshr miss rate for ReadSharedReq accesses
system.l2.ReadSharedReq_mshr_miss_rate::total     0.631359                       # mshr miss rate for ReadSharedReq accesses
system.l2.demand_mshr_miss_rate::cpu0.data     0.629970                       # mshr miss rate for demand accesses
system.l2.demand_mshr_miss_rate::total       0.629970                       # mshr miss rate for demand accesses
system.l2.overall_mshr_miss_rate::cpu0.data     0.629970                       # mshr miss rate for overall accesses
system.l2.overall_mshr_miss_rate::total      0.629970                       # mshr miss rate for overall accesses
system.l2.ReadExReq_avg_mshr_miss_latency::cpu0.data 94387.372014                       # average ReadExReq mshr miss latency
system.l2.ReadExReq_avg_mshr_miss_latency::total 94387.372014                       # average ReadExReq mshr miss latency
system.l2.ReadSharedReq_avg_mshr_miss_latency::cpu0.data 85431.690362                       # average ReadSharedReq mshr miss latency
system.l2.ReadSharedReq_avg_mshr_miss_latency::total 85431.690362                       # average ReadSharedReq mshr miss latency
system.l2.demand_avg_mshr_miss_latency::cpu0.data 85446.121187                       # average overall mshr miss latency
system.l2.demand_avg_mshr_miss_latency::total 85446.121187                       # average overall mshr miss latency
system.l2.overall_avg_mshr_miss_latency::cpu0.data 85446.121187                       # average overall mshr miss latency
system.l2.overall_avg_mshr_miss_latency::total 85446.121187                       # average overall mshr miss latency
system.membus.snoop_filter.tot_requests        363667                       # Total number of requests made to the snoop filter.
system.membus.snoop_filter.hit_single_requests       181834                       # Number of requests hitting in the snoop filter with a single holder of the requested data.
system.membus.snoop_filter.hit_multi_requests            0                       # Number of requests hitting in the snoop filter with multiple (>1) holders of the requested data.
system.membus.snoop_filter.tot_snoops               0                       # Total number of snoops made to the snoop filter.
system.membus.snoop_filter.hit_single_snoops            0                       # Number of snoops hitting in the snoop filter with a single holder of the requested data.
system.membus.snoop_filter.hit_multi_snoops            0                       # Number of snoops hitting in the snoop filter with multiple (>1) holders of the requested data.
system.membus.pwrStateResidencyTicks::UNDEFINED  15267344125                       # Cumulative time (in ticks) in various power states
system.membus.trans_dist::ReadResp             181541                       # Transaction distribution
system.membus.trans_dist::WritebackDirty          388                       # Transaction distribution
system.membus.trans_dist::CleanEvict           181445                       # Transaction distribution
system.membus.trans_dist::ReadExReq               293                       # Transaction distribution
system.membus.trans_dist::ReadExResp              293                       # Transaction distribution
system.membus.trans_dist::ReadSharedReq        181541                       # Transaction distribution
system.membus.pkt_count_system.l2.mem_side::system.mem_ctrls.port       545501                       # Packet count per connected master and slave (bytes)
system.membus.pkt_count_system.l2.mem_side::total       545501                       # Packet count per connected master and slave (bytes)
system.membus.pkt_count::total                 545501                       # Packet count per connected master and slave (bytes)
system.membus.pkt_size_system.l2.mem_side::system.mem_ctrls.port     11662208                       # Cumulative packet size per connected master and slave (bytes)
system.membus.pkt_size_system.l2.mem_side::total     11662208                       # Cumulative packet size per connected master and slave (bytes)
system.membus.pkt_size::total                11662208                       # Cumulative packet size per connected master and slave (bytes)
system.membus.snoops                                0                       # Total snoops (count)
system.membus.snoopTraffic                          0                       # Total snoop traffic (bytes)
system.membus.snoop_fanout::samples            181834                       # Request fanout histogram
system.membus.snoop_fanout::mean                    0                       # Request fanout histogram
system.membus.snoop_fanout::stdev                   0                       # Request fanout histogram
system.membus.snoop_fanout::underflows              0      0.00%      0.00% # Request fanout histogram
system.membus.snoop_fanout::0                  181834    100.00%    100.00% # Request fanout histogram
system.membus.snoop_fanout::1                       0      0.00%    100.00% # Request fanout histogram
system.membus.snoop_fanout::overflows               0      0.00%    100.00% # Request fanout histogram
system.membus.snoop_fanout::min_value               0                       # Request fanout histogram
system.membus.snoop_fanout::max_value               0                       # Request fanout histogram
system.membus.snoop_fanout::total              181834                       # Request fanout histogram
system.membus.reqLayer8.occupancy           429473500                       # Layer occupancy (ticks)
system.membus.reqLayer8.utilization               2.8                       # Layer utilization (%)
system.membus.respLayer1.occupancy          985459250                       # Layer occupancy (ticks)
system.membus.respLayer1.utilization              6.5                       # Layer utilization (%)
system.tol2bus.snoop_filter.tot_requests       577278                       # Total number of requests made to the snoop filter.
system.tol2bus.snoop_filter.hit_single_requests       288637                       # Number of requests hitting in the snoop filter with a single holder of the requested data.
system.tol2bus.snoop_filter.hit_multi_requests          763                       # Number of requests hitting in the snoop filter with multiple (>1) holders of the requested data.
system.tol2bus.snoop_filter.tot_snoops              1                       # Total number of snoops made to the snoop filter.
system.tol2bus.snoop_filter.hit_single_snoops            1                       # Number of snoops hitting in the snoop filter with a single holder of the requested data.
system.tol2bus.snoop_filter.hit_multi_snoops            0                       # Number of snoops hitting in the snoop filter with multiple (>1) holders of the requested data.
system.tol2bus.pwrStateResidencyTicks::UNDEFINED  15267344125                       # Cumulative time (in ticks) in various power states
system.tol2bus.trans_dist::ReadResp            287540                       # Transaction distribution
system.tol2bus.trans_dist::WritebackDirty         3598                       # Transaction distribution
system.tol2bus.trans_dist::CleanEvict          466875                       # Transaction distribution
system.tol2bus.trans_dist::ReadExReq             1099                       # Transaction distribution
system.tol2bus.trans_dist::ReadExResp            1099                       # Transaction distribution
system.tol2bus.trans_dist::ReadSharedReq       287540                       # Transaction distribution
system.tol2bus.pkt_count_system.cpu0.dcache.mem_side::system.l2.cpu_side       865917                       # Packet count per connected master and slave (bytes)
system.tol2bus.pkt_count::total                865917                       # Packet count per connected master and slave (bytes)
system.tol2bus.pkt_size_system.cpu0.dcache.mem_side::system.l2.cpu_side     18678336                       # Cumulative packet size per connected master and slave (bytes)
system.tol2bus.pkt_size::total               18678336                       # Cumulative packet size per connected master and slave (bytes)
system.tol2bus.snoops                          181834                       # Total snoops (count)
system.tol2bus.snoopTraffic                     24832                       # Total snoop traffic (bytes)
system.tol2bus.snoop_fanout::samples           470473                       # Request fanout histogram
system.tol2bus.snoop_fanout::mean            0.001620                       # Request fanout histogram
system.tol2bus.snoop_fanout::stdev           0.040212                       # Request fanout histogram
system.tol2bus.snoop_fanout::underflows             0      0.00%      0.00% # Request fanout histogram
system.tol2bus.snoop_fanout::0                 469711     99.84%     99.84% # Request fanout histogram
system.tol2bus.snoop_fanout::1                    762      0.16%    100.00% # Request fanout histogram
system.tol2bus.snoop_fanout::2                      0      0.00%    100.00% # Request fanout histogram
system.tol2bus.snoop_fanout::3                      0      0.00%    100.00% # Request fanout histogram
system.tol2bus.snoop_fanout::4                      0      0.00%    100.00% # Request fanout histogram
system.tol2bus.snoop_fanout::5                      0      0.00%    100.00% # Request fanout histogram
system.tol2bus.snoop_fanout::6                      0      0.00%    100.00% # Request fanout histogram
system.tol2bus.snoop_fanout::7                      0      0.00%    100.00% # Request fanout histogram
system.tol2bus.snoop_fanout::8                      0      0.00%    100.00% # Request fanout histogram
system.tol2bus.snoop_fanout::9                      0      0.00%    100.00% # Request fanout histogram
system.tol2bus.snoop_fanout::10                     0      0.00%    100.00% # Request fanout histogram
system.tol2bus.snoop_fanout::11                     0      0.00%    100.00% # Request fanout histogram
system.tol2bus.snoop_fanout::12                     0      0.00%    100.00% # Request fanout histogram
system.tol2bus.snoop_fanout::13                     0      0.00%    100.00% # Request fanout histogram
system.tol2bus.snoop_fanout::14                     0      0.00%    100.00% # Request fanout histogram
system.tol2bus.snoop_fanout::15                     0      0.00%    100.00% # Request fanout histogram
system.tol2bus.snoop_fanout::16                     0      0.00%    100.00% # Request fanout histogram
system.tol2bus.snoop_fanout::overflows              0      0.00%    100.00% # Request fanout histogram
system.tol2bus.snoop_fanout::min_value              0                       # Request fanout histogram
system.tol2bus.snoop_fanout::max_value              1                       # Request fanout histogram
system.tol2bus.snoop_fanout::total             470473                       # Request fanout histogram
system.tol2bus.reqLayer0.occupancy          291849000                       # Layer occupancy (ticks)
system.tol2bus.reqLayer0.utilization              1.9                       # Layer utilization (%)
system.tol2bus.respLayer1.occupancy         432958500                       # Layer occupancy (ticks)
system.tol2bus.respLayer1.utilization             2.8                       # Layer utilization (%)

---------- End Simulation Statistics   ----------
