
---------- Begin Simulation Statistics ----------
sim_seconds                                  0.015267                       # Number of seconds simulated
sim_ticks                                 15267344125                       # Number of ticks simulated
final_tick                               4748144022875                       # Number of ticks from beginning of simulation (restored from checkpoints and never reset)
sim_freq                                 1000000000000                       # Frequency of simulated ticks
host_inst_rate                               94402070                       # Simulator instruction rate (inst/s)
host_op_rate                                175435871                       # Simulator op (including micro ops) rate (op/s)
host_tick_rate                              248665393                       # Simulator tick rate (ticks/s)
host_mem_usage                                2332528                       # Number of bytes of host memory used
host_seconds                                    61.40                       # Real time elapsed on the host
sim_insts                                  5796015450                       # Number of instructions simulated
sim_ops                                   10771259440                       # Number of ops (including micro ops) simulated
system.voltage_domain.voltage                       1                       # Voltage in Volts
system.clk_domain.clock                          1000                       # Clock period in ticks
system.mem_ctrls.pwrStateResidencyTicks::UNDEFINED  15267344125                       # Cumulative time (in ticks) in various power states
system.mem_ctrls.bytes_read::cpu0.data       11547008                       # Number of bytes read from this memory
system.mem_ctrls.bytes_read::total           11547008                       # Number of bytes read from this memory
system.mem_ctrls.bytes_written::writebacks        26880                       # Number of bytes written to this memory
system.mem_ctrls.bytes_written::total           26880                       # Number of bytes written to this memory
system.mem_ctrls.num_reads::cpu0.data          180422                       # Number of read requests responded to by this memory
system.mem_ctrls.num_reads::total              180422                       # Number of read requests responded to by this memory
system.mem_ctrls.num_writes::writebacks           420                       # Number of write requests responded to by this memory
system.mem_ctrls.num_writes::total                420                       # Number of write requests responded to by this memory
system.mem_ctrls.bw_read::cpu0.data         756320674                       # Total read bandwidth from this memory (bytes/s)
system.mem_ctrls.bw_read::total             756320674                       # Total read bandwidth from this memory (bytes/s)
system.mem_ctrls.bw_write::writebacks         1760621                       # Write bandwidth from this memory (bytes/s)
system.mem_ctrls.bw_write::total              1760621                       # Write bandwidth from this memory (bytes/s)
system.mem_ctrls.bw_total::writebacks         1760621                       # Total bandwidth to/from this memory (bytes/s)
system.mem_ctrls.bw_total::cpu0.data        756320674                       # Total bandwidth to/from this memory (bytes/s)
system.mem_ctrls.bw_total::total            758081295                       # Total bandwidth to/from this memory (bytes/s)
system.mem_ctrls.readReqs                      180422                       # Number of read requests accepted
system.mem_ctrls.writeReqs                        420                       # Number of write requests accepted
system.mem_ctrls.readBursts                    180422                       # Number of DRAM read bursts, including those serviced by the write queue
system.mem_ctrls.writeBursts                      420                       # Number of DRAM write bursts, including those merged in the write queue
system.mem_ctrls.bytesReadDRAM               11544064                       # Total number of bytes read from DRAM
system.mem_ctrls.bytesReadWrQ                    2944                       # Total number of bytes read from write queue
system.mem_ctrls.bytesWritten                   26752                       # Total number of bytes written to DRAM
system.mem_ctrls.bytesReadSys                11547008                       # Total read bytes from the system interface side
system.mem_ctrls.bytesWrittenSys                26880                       # Total written bytes from the system interface side
system.mem_ctrls.servicedByWrQ                     46                       # Number of DRAM read bursts serviced by the write queue
system.mem_ctrls.mergedWrBursts                     0                       # Number of DRAM write bursts merged with an existing one
system.mem_ctrls.neitherReadNorWriteReqs            0                       # Number of requests that are neither read nor write
system.mem_ctrls.perBankRdBursts::0             10890                       # Per bank write bursts
system.mem_ctrls.perBankRdBursts::1             10961                       # Per bank write bursts
system.mem_ctrls.perBankRdBursts::2             11178                       # Per bank write bursts
system.mem_ctrls.perBankRdBursts::3             11519                       # Per bank write bursts
system.mem_ctrls.perBankRdBursts::4             11809                       # Per bank write bursts
system.mem_ctrls.perBankRdBursts::5             11587                       # Per bank write bursts
system.mem_ctrls.perBankRdBursts::6             11517                       # Per bank write bursts
system.mem_ctrls.perBankRdBursts::7             11506                       # Per bank write bursts
system.mem_ctrls.perBankRdBursts::8             11325                       # Per bank write bursts
system.mem_ctrls.perBankRdBursts::9             11410                       # Per bank write bursts
system.mem_ctrls.perBankRdBursts::10            11225                       # Per bank write bursts
system.mem_ctrls.perBankRdBursts::11            11283                       # Per bank write bursts
system.mem_ctrls.perBankRdBursts::12            11232                       # Per bank write bursts
system.mem_ctrls.perBankRdBursts::13            11036                       # Per bank write bursts
system.mem_ctrls.perBankRdBursts::14            10901                       # Per bank write bursts
system.mem_ctrls.perBankRdBursts::15            10997                       # Per bank write bursts
system.mem_ctrls.perBankWrBursts::0                 0                       # Per bank write bursts
system.mem_ctrls.perBankWrBursts::1                 0                       # Per bank write bursts
system.mem_ctrls.perBankWrBursts::2                 0                       # Per bank write bursts
system.mem_ctrls.perBankWrBursts::3                77                       # Per bank write bursts
system.mem_ctrls.perBankWrBursts::4                 8                       # Per bank write bursts
system.mem_ctrls.perBankWrBursts::5                 3                       # Per bank write bursts
system.mem_ctrls.perBankWrBursts::6                32                       # Per bank write bursts
system.mem_ctrls.perBankWrBursts::7               156                       # Per bank write bursts
system.mem_ctrls.perBankWrBursts::8               117                       # Per bank write bursts
system.mem_ctrls.perBankWrBursts::9                14                       # Per bank write bursts
system.mem_ctrls.perBankWrBursts::10                0                       # Per bank write bursts
system.mem_ctrls.perBankWrBursts::11                0                       # Per bank write bursts
system.mem_ctrls.perBankWrBursts::12               11                       # Per bank write bursts
system.mem_ctrls.perBankWrBursts::13                0                       # Per bank write bursts
system.mem_ctrls.perBankWrBursts::14                0                       # Per bank write bursts
system.mem_ctrls.perBankWrBursts::15                0                       # Per bank write bursts
system.mem_ctrls.numRdRetry                         0                       # Number of times read queue was full causing retry
system.mem_ctrls.numWrRetry                         0                       # Number of times write queue was full causing retry
system.mem_ctrls.totGap                   15267342500                       # Total gap between requests
system.mem_ctrls.readPktSize::0                     0                       # Read request sizes (log2)
system.mem_ctrls.readPktSize::1                     0                       # Read request sizes (log2)
system.mem_ctrls.readPktSize::2                     0                       # Read request sizes (log2)
system.mem_ctrls.readPktSize::3                     0                       # Read request sizes (log2)
system.mem_ctrls.readPktSize::4                     0                       # Read request sizes (log2)
system.mem_ctrls.readPktSize::5                     0                       # Read request sizes (log2)
system.mem_ctrls.readPktSize::6                180422                       # Read request sizes (log2)
system.mem_ctrls.writePktSize::0                    0                       # Write request sizes (log2)
system.mem_ctrls.writePktSize::1                    0                       # Write request sizes (log2)
system.mem_ctrls.writePktSize::2                    0                       # Write request sizes (log2)
system.mem_ctrls.writePktSize::3                    0                       # Write request sizes (log2)
system.mem_ctrls.writePktSize::4                    0                       # Write request sizes (log2)
system.mem_ctrls.writePktSize::5                    0                       # Write request sizes (log2)
system.mem_ctrls.writePktSize::6                  420                       # Write request sizes (log2)
system.mem_ctrls.rdQLenPdf::0                  139424                       # What read queue length does an incoming req see
system.mem_ctrls.rdQLenPdf::1                   38751                       # What read queue length does an incoming req see
system.mem_ctrls.rdQLenPdf::2                    2152                       # What read queue length does an incoming req see
system.mem_ctrls.rdQLenPdf::3                      49                       # What read queue length does an incoming req see
system.mem_ctrls.rdQLenPdf::4                       0                       # What read queue length does an incoming req see
system.mem_ctrls.rdQLenPdf::5                       0                       # What read queue length does an incoming req see
system.mem_ctrls.rdQLenPdf::6                       0                       # What read queue length does an incoming req see
system.mem_ctrls.rdQLenPdf::7                       0                       # What read queue length does an incoming req see
system.mem_ctrls.rdQLenPdf::8                       0                       # What read queue length does an incoming req see
system.mem_ctrls.rdQLenPdf::9                       0                       # What read queue length does an incoming req see
system.mem_ctrls.rdQLenPdf::10                      0                       # What read queue length does an incoming req see
system.mem_ctrls.rdQLenPdf::11                      0                       # What read queue length does an incoming req see
system.mem_ctrls.rdQLenPdf::12                      0                       # What read queue length does an incoming req see
system.mem_ctrls.rdQLenPdf::13                      0                       # What read queue length does an incoming req see
system.mem_ctrls.rdQLenPdf::14                      0                       # What read queue length does an incoming req see
system.mem_ctrls.rdQLenPdf::15                      0                       # What read queue length does an incoming req see
system.mem_ctrls.rdQLenPdf::16                      0                       # What read queue length does an incoming req see
system.mem_ctrls.rdQLenPdf::17                      0                       # What read queue length does an incoming req see
system.mem_ctrls.rdQLenPdf::18                      0                       # What read queue length does an incoming req see
system.mem_ctrls.rdQLenPdf::19                      0                       # What read queue length does an incoming req see
system.mem_ctrls.rdQLenPdf::20                      0                       # What read queue length does an incoming req see
system.mem_ctrls.rdQLenPdf::21                      0                       # What read queue length does an incoming req see
system.mem_ctrls.rdQLenPdf::22                      0                       # What read queue length does an incoming req see
system.mem_ctrls.rdQLenPdf::23                      0                       # What read queue length does an incoming req see
system.mem_ctrls.rdQLenPdf::24                      0                       # What read queue length does an incoming req see
system.mem_ctrls.rdQLenPdf::25                      0                       # What read queue length does an incoming req see
system.mem_ctrls.rdQLenPdf::26                      0                       # What read queue length does an incoming req see
system.mem_ctrls.rdQLenPdf::27                      0                       # What read queue length does an incoming req see
system.mem_ctrls.rdQLenPdf::28                      0                       # What read queue length does an incoming req see
system.mem_ctrls.rdQLenPdf::29                      0                       # What read queue length does an incoming req see
system.mem_ctrls.rdQLenPdf::30                      0                       # What read queue length does an incoming req see
system.mem_ctrls.rdQLenPdf::31                      0                       # What read queue length does an incoming req see
system.mem_ctrls.wrQLenPdf::0                       0                       # What write queue length does an incoming req see
system.mem_ctrls.wrQLenPdf::1                       0                       # What write queue length does an incoming req see
system.mem_ctrls.wrQLenPdf::2                       0                       # What write queue length does an incoming req see
system.mem_ctrls.wrQLenPdf::3                       0                       # What write queue length does an incoming req see
system.mem_ctrls.wrQLenPdf::4                       0                       # What write queue length does an incoming req see
system.mem_ctrls.wrQLenPdf::5                       0                       # What write queue length does an incoming req see
system.mem_ctrls.wrQLenPdf::6                       0                       # What write queue length does an incoming req see
system.mem_ctrls.wrQLenPdf::7                       0                       # What write queue length does an incoming req see
system.mem_ctrls.wrQLenPdf::8                       0                       # What write queue length does an incoming req see
system.mem_ctrls.wrQLenPdf::9                       0                       # What write queue length does an incoming req see
system.mem_ctrls.wrQLenPdf::10                      0                       # What write queue length does an incoming req see
system.mem_ctrls.wrQLenPdf::11                      0                       # What write queue length does an incoming req see
system.mem_ctrls.wrQLenPdf::12                      0                       # What write queue length does an incoming req see
system.mem_ctrls.wrQLenPdf::13                      0                       # What write queue length does an incoming req see
system.mem_ctrls.wrQLenPdf::14                      0                       # What write queue length does an incoming req see
system.mem_ctrls.wrQLenPdf::15                      1                       # What write queue length does an incoming req see
system.mem_ctrls.wrQLenPdf::16                      1                       # What write queue length does an incoming req see
system.mem_ctrls.wrQLenPdf::17                     24                       # What write queue length does an incoming req see
system.mem_ctrls.wrQLenPdf::18                     27                       # What write queue length does an incoming req see
system.mem_ctrls.wrQLenPdf::19                     27                       # What write queue length does an incoming req see
system.mem_ctrls.wrQLenPdf::20                     26                       # What write queue length does an incoming req see
system.mem_ctrls.wrQLenPdf::21                     26                       # What write queue length does an incoming req see
system.mem_ctrls.wrQLenPdf::22                     26                       # What write queue length does an incoming req see
system.mem_ctrls.wrQLenPdf::23                     26                       # What write queue length does an incoming req see
system.mem_ctrls.wrQLenPdf::24                     26                       # What write queue length does an incoming req see
system.mem_ctrls.wrQLenPdf::25                     26                       # What write queue length does an incoming req see
system.mem_ctrls.wrQLenPdf::26                     26                       # What write queue length does an incoming req see
system.mem_ctrls.wrQLenPdf::27                     26                       # What write queue length does an incoming req see
system.mem_ctrls.wrQLenPdf::28                     26                       # What write queue length does an incoming req see
system.mem_ctrls.wrQLenPdf::29                     26                       # What write queue length does an incoming req see
system.mem_ctrls.wrQLenPdf::30                     26                       # What write queue length does an incoming req see
system.mem_ctrls.wrQLenPdf::31                     26                       # What write queue length does an incoming req see
system.mem_ctrls.wrQLenPdf::32                     28                       # What write queue length does an incoming req see
system.mem_ctrls.wrQLenPdf::33                      0                       # What write queue length does an incoming req see
system.mem_ctrls.wrQLenPdf::34                      0                       # What write queue length does an incoming req see
system.mem_ctrls.wrQLenPdf::35                      0                       # What write queue length does an incoming req see
system.mem_ctrls.wrQLenPdf::36                      0                       # What write queue length does an incoming req see
system.mem_ctrls.wrQLenPdf::37                      0                       # What write queue length does an incoming req see
system.mem_ctrls.wrQLenPdf::38                      0                       # What write queue length does an incoming req see
system.mem_ctrls.wrQLenPdf::39                      0                       # What write queue length does an incoming req see
system.mem_ctrls.wrQLenPdf::40                      0                       # What write queue length does an incoming req see
system.mem_ctrls.wrQLenPdf::41                      0                       # What write queue length does an incoming req see
system.mem_ctrls.wrQLenPdf::42                      0                       # What write queue length does an incoming req see
system.mem_ctrls.wrQLenPdf::43                      0                       # What write queue length does an incoming req see
system.mem_ctrls.wrQLenPdf::44                      0                       # What write queue length does an incoming req see
system.mem_ctrls.wrQLenPdf::45                      0                       # What write queue length does an incoming req see
system.mem_ctrls.wrQLenPdf::46                      0                       # What write queue length does an incoming req see
system.mem_ctrls.wrQLenPdf::47                      0                       # What write queue length does an incoming req see
system.mem_ctrls.wrQLenPdf::48                      0                       # What write queue length does an incoming req see
system.mem_ctrls.wrQLenPdf::49                      0                       # What write queue length does an incoming req see
system.mem_ctrls.wrQLenPdf::50                      0                       # What write queue length does an incoming req see
system.mem_ctrls.wrQLenPdf::51                      0                       # What write queue length does an incoming req see
system.mem_ctrls.wrQLenPdf::52                      0                       # What write queue length does an incoming req see
system.mem_ctrls.wrQLenPdf::53                      0                       # What write queue length does an incoming req see
system.mem_ctrls.wrQLenPdf::54                      0                       # What write queue length does an incoming req see
system.mem_ctrls.wrQLenPdf::55                      0                       # What write queue length does an incoming req see
system.mem_ctrls.wrQLenPdf::56                      0                       # What write queue length does an incoming req see
system.mem_ctrls.wrQLenPdf::57                      0                       # What write queue length does an incoming req see
system.mem_ctrls.wrQLenPdf::58                      0                       # What write queue length does an incoming req see
system.mem_ctrls.wrQLenPdf::59                      0                       # What write queue length does an incoming req see
system.mem_ctrls.wrQLenPdf::60                      0                       # What write queue length does an incoming req see
system.mem_ctrls.wrQLenPdf::61                      0                       # What write queue length does an incoming req see
system.mem_ctrls.wrQLenPdf::62                      0                       # What write queue length does an incoming req see
system.mem_ctrls.wrQLenPdf::63                      0                       # What write queue length does an incoming req see
system.mem_ctrls.bytesPerActivate::samples        96243                       # Bytes accessed per row activation
system.mem_ctrls.bytesPerActivate::mean    120.223019                       # Bytes accessed per row activation
system.mem_ctrls.bytesPerActivate::gmean   103.900246                       # Bytes accessed per row activation
system.mem_ctrls.bytesPerActivate::stdev    72.064873                       # Bytes accessed per row activation
system.mem_ctrls.bytesPerActivate::0-127        46430     48.24%     48.24% # Bytes accessed per row activation
system.mem_ctrls.bytesPerActivate::128-255        41125     42.73%     90.97% # Bytes accessed per row activation
system.mem_ctrls.bytesPerActivate::256-383         7625      7.92%     98.90% # Bytes accessed per row activation
system.mem_ctrls.bytesPerActivate::384-511          934      0.97%     99.87% # Bytes accessed per row activation
system.mem_ctrls.bytesPerActivate::512-639          104      0.11%     99.97% # Bytes accessed per row activation
system.mem_ctrls.bytesPerActivate::640-767           11      0.01%     99.99% # Bytes accessed per row activation
system.mem_ctrls.bytesPerActivate::768-895            2      0.00%     99.99% # Bytes accessed per row activation
system.mem_ctrls.bytesPerActivate::896-1023            4      0.00%     99.99% # Bytes accessed per row activation
system.mem_ctrls.bytesPerActivate::1024-1151            8      0.01%    100.00% # Bytes accessed per row activation
system.mem_ctrls.bytesPerActivate::total        96243                       # Bytes accessed per row activation
system.mem_ctrls.rdPerTurnAround::samples           26                       # Reads before turning the bus around for writes
system.mem_ctrls.rdPerTurnAround::mean    6885.153846                       # Reads before turning the bus around for writes
system.mem_ctrls.rdPerTurnAround::gmean   6497.647523                       # Reads before turning the bus around for writes
system.mem_ctrls.rdPerTurnAround::stdev   2466.768424                       # Reads before turning the bus around for writes
system.mem_ctrls.rdPerTurnAround::3584-4095            1      3.85%      3.85% # Reads before turning the bus around for writes
system.mem_ctrls.rdPerTurnAround::4096-4607            4     15.38%     19.23% # Reads before turning the bus around for writes
system.mem_ctrls.rdPerTurnAround::4608-5119            5     19.23%     38.46% # Reads before turning the bus around for writes
system.mem_ctrls.rdPerTurnAround::5120-5631            1      3.85%     42.31% # Reads before turning the bus around for writes
system.mem_ctrls.rdPerTurnAround::5632-6143            1      3.85%     46.15% # Reads before turning the bus around for writes
system.mem_ctrls.rdPerTurnAround::6144-6655            3     11.54%     57.69% # Reads before turning the bus around for writes
system.mem_ctrls.rdPerTurnAround::6656-7167            2      7.69%     65.38% # Reads before turning the bus around for writes
system.mem_ctrls.rdPerTurnAround::7168-7679            1      3.85%     69.23% # Reads before turning the bus around for writes
system.mem_ctrls.rdPerTurnAround::8192-8703            1      3.85%     73.08% # Reads before turning the bus around for writes
system.mem_ctrls.rdPerTurnAround::8704-9215            2      7.69%     80.77% # Reads before turning the bus around for writes
system.mem_ctrls.rdPerTurnAround::9216-9727            1      3.85%     84.62% # Reads before turning the bus around for writes
system.mem_ctrls.rdPerTurnAround::9728-10239            1      3.85%     88.46% # Reads before turning the bus around for writes
system.mem_ctrls.rdPerTurnAround::10240-10751            1      3.85%     92.31% # Reads before turning the bus around for writes
system.mem_ctrls.rdPerTurnAround::11776-12287            2      7.69%    100.00% # Reads before turning the bus around for writes
system.mem_ctrls.rdPerTurnAround::total            26                       # Reads before turning the bus around for writes
system.mem_ctrls.wrPerTurnAround::samples           26                       # Writes before turning the bus around for reads
system.mem_ctrls.wrPerTurnAround::mean      16.076923                       # Writes before turning the bus around for reads
system.mem_ctrls.wrPerTurnAround::gmean     16.072646                       # Writes before turning the bus around for reads
system.mem_ctrls.wrPerTurnAround::stdev      0.392232                       # Writes before turning the bus around for reads
system.mem_ctrls.wrPerTurnAround::16               25     96.15%     96.15% # Writes before turning the bus around for reads
system.mem_ctrls.wrPerTurnAround::18                1      3.85%    100.00% # Writes before turning the bus around for reads
system.mem_ctrls.wrPerTurnAround::total            26                       # Writes before turning the bus around for reads
system.mem_ctrls.totQLat                   4523468000                       # Total ticks spent queuing
system.mem_ctrls.totMemAccLat              7905518000                       # Total ticks spent from burst creation until serviced by the DRAM
system.mem_ctrls.totBusLat                  901880000                       # Total ticks spent in databus transfers
system.mem_ctrls.avgQLat                     25077.99                       # Average queueing delay per DRAM burst
system.mem_ctrls.avgBusLat                    5000.00                       # Average bus latency per DRAM burst
system.mem_ctrls.avgMemAccLat                43827.99                       # Average memory access latency per DRAM burst
system.mem_ctrls.avgRdBW                       756.13                       # Average DRAM read bandwidth in MiByte/s
system.mem_ctrls.avgWrBW                         1.75                       # Average achieved write bandwidth in MiByte/s
system.mem_ctrls.avgRdBWSys                    756.32                       # Average system read bandwidth in MiByte/s
system.mem_ctrls.avgWrBWSys                      1.76                       # Average system write bandwidth in MiByte/s
system.mem_ctrls.peakBW                      12800.00                       # Theoretical peak bandwidth in MiByte/s
system.mem_ctrls.busUtil                         5.92                       # Data bus utilization in percentage
system.mem_ctrls.busUtilRead                     5.91                       # Data bus utilization in percentage for reads
system.mem_ctrls.busUtilWrite                    0.01                       # Data bus utilization in percentage for writes
system.mem_ctrls.avgRdQLen                       1.28                       # Average read queue length when enqueuing
system.mem_ctrls.avgWrQLen                      25.32                       # Average write queue length when enqueuing
system.mem_ctrls.readRowHits                    84193                       # Number of row buffer hits during reads
system.mem_ctrls.writeRowHits                     353                       # Number of row buffer hits during writes
system.mem_ctrls.readRowHitRate                 46.68                       # Row buffer hit rate for reads
system.mem_ctrls.writeRowHitRate                84.05                       # Row buffer hit rate for writes
system.mem_ctrls.avgGap                      84423.65                       # Average gap between requests
system.mem_ctrls.pageHitRate                    46.76                       # Row buffer hit rate, read and write combined
system.mem_ctrls_0.actEnergy                346118640                       # Energy for activate commands per rank (pJ)
system.mem_ctrls_0.preEnergy                183951240                       # Energy for precharge commands per rank (pJ)
system.mem_ctrls_0.readEnergy               649504380                       # Energy for read commands per rank (pJ)
system.mem_ctrls_0.writeEnergy                1440720                       # Energy for write commands per rank (pJ)
system.mem_ctrls_0.refreshEnergy         1207152960.000000                       # Energy for refresh commands per rank (pJ)
system.mem_ctrls_0.actBackEnergy           1575384810                       # Energy for active background per rank (pJ)
system.mem_ctrls_0.preBackEnergy             25090080                       # Energy for precharge background per rank (pJ)
system.mem_ctrls_0.actPowerDownEnergy      5166143700                       # Energy for active power-down per rank (pJ)
system.mem_ctrls_0.prePowerDownEnergy       155561760                       # Energy for precharge power-down per rank (pJ)
system.mem_ctrls_0.selfRefreshEnergy          6395940                       # Energy for self refresh per rank (pJ)
system.mem_ctrls_0.totalEnergy             9316750650                       # Total energy per rank (pJ)
system.mem_ctrls_0.averagePower            610.240430                       # Core power per rank (mW)
system.mem_ctrls_0.totalIdleTime          11746756250                       # Total Idle time Per DRAM Rank
system.mem_ctrls_0.memoryStateTime::IDLE     11028500                       # Time in different power states
system.mem_ctrls_0.memoryStateTime::REF     510676000                       # Time in different power states
system.mem_ctrls_0.memoryStateTime::SREF     12825250                       # Time in different power states
system.mem_ctrls_0.memoryStateTime::PRE_PDN    405045000                       # Time in different power states
system.mem_ctrls_0.memoryStateTime::ACT    2998844500                       # Time in different power states
system.mem_ctrls_0.memoryStateTime::ACT_PDN  11328924875                       # Time in different power states
system.mem_ctrls_1.actEnergy                341092080                       # Energy for activate commands per rank (pJ)
system.mem_ctrls_1.preEnergy                181290945                       # Energy for precharge commands per rank (pJ)
system.mem_ctrls_1.readEnergy               638380260                       # Energy for read commands per rank (pJ)
system.mem_ctrls_1.writeEnergy                 741240                       # Energy for write commands per rank (pJ)
system.mem_ctrls_1.refreshEnergy         1205923680.000000                       # Energy for refresh commands per rank (pJ)
system.mem_ctrls_1.actBackEnergy           1555069440                       # Energy for active background per rank (pJ)
system.mem_ctrls_1.preBackEnergy             24830880                       # Energy for precharge background per rank (pJ)
system.mem_ctrls_1.actPowerDownEnergy      5173857510                       # Energy for active power-down per rank (pJ)
system.mem_ctrls_1.prePowerDownEnergy       166455840                       # Energy for precharge power-down per rank (pJ)
system.mem_ctrls_1.selfRefreshEnergy          4724820                       # Energy for self refresh per rank (pJ)
system.mem_ctrls_1.totalEnergy             9292366695                       # Total energy per rank (pJ)
system.mem_ctrls_1.averagePower            608.643299                       # Core power per rank (mW)
system.mem_ctrls_1.totalIdleTime          11790361750                       # Total Idle time Per DRAM Rank
system.mem_ctrls_1.memoryStateTime::IDLE     10578000                       # Time in different power states
system.mem_ctrls_1.memoryStateTime::REF     510144000                       # Time in different power states
system.mem_ctrls_1.memoryStateTime::SREF     12782750                       # Time in different power states
system.mem_ctrls_1.memoryStateTime::PRE_PDN    433457750                       # Time in different power states
system.mem_ctrls_1.memoryStateTime::ACT    2955388250                       # Time in different power states
system.mem_ctrls_1.memoryStateTime::ACT_PDN  11344993375                       # Time in different power states
system.pwrStateResidencyTicks::UNDEFINED  15267344125                       # Cumulative time (in ticks) in various power states
system.cpu0.branchPred.lookups                1595365                       # Number of BP lookups
system.cpu0.branchPred.condPredicted          1595365                       # Number of conditional branches predicted
system.cpu0.branchPred.condIncorrect            62493                       # Number of conditional branches incorrect
system.cpu0.branchPred.BTBLookups             1285204                       # Number of BTB lookups
system.cpu0.branchPred.BTBHits                      0                       # Number of BTB hits
system.cpu0.branchPred.BTBCorrect                   0                       # Number of correct BTB predictions (this stat may not work properly.
system.cpu0.branchPred.BTBHitPct             0.000000                       # BTB Hit Percentage
system.cpu0.branchPred.usedRAS                  40590                       # Number of times the RAS was used to get a target.
system.cpu0.branchPred.RASInCorrect              5818                       # Number of incorrect RAS predictions.
system.cpu0.branchPred.indirectLookups        1285204                       # Number of indirect predictor lookups.
system.cpu0.branchPred.indirectHits            692451                       # Number of indirect target hits.
system.cpu0.branchPred.indirectMisses          592753                       # Number of indirect misses.
system.cpu0.branchPredindirectMispredicted        22139                       # Number of mispredicted indirect branches.
system.cpu_voltage_domain.voltage                   1                       # Voltage in Volts
system.cpu_clk_domain.clock                       500                       # Clock period in ticks
system.cpu0.dtb.walker.pwrStateResidencyTicks::UNDEFINED  15267344125                       # Cumulative time (in ticks) in various power states
system.cpu0.dtb.rdAccesses                     800917                       # TLB accesses on read requests
system.cpu0.dtb.wrAccesses                      59633                       # TLB accesses on write requests
system.cpu0.dtb.rdMisses                       183559                       # TLB misses on read requests
system.cpu0.dtb.wrMisses                          961                       # TLB misses on write requests
system.cpu0.apic_clk_domain.clock                8000                       # Clock period in ticks
system.cpu0.interrupts.pwrStateResidencyTicks::UNDEFINED  15267344125                       # Cumulative time (in ticks) in various power states
system.cpu0.itb.walker.pwrStateResidencyTicks::UNDEFINED  15267344125                       # Cumulative time (in ticks) in various power states
system.cpu0.itb.rdAccesses                          0                       # TLB accesses on read requests
system.cpu0.itb.wrAccesses                    1356881                       # TLB accesses on write requests
system.cpu0.itb.rdMisses                            0                       # TLB misses on read requests
system.cpu0.itb.wrMisses                         3609                       # TLB misses on write requests
system.cpu0.workload.numSyscalls                    0                       # Number of system calls
system.cpu0.pwrStateResidencyTicks::ON    15267344125                       # Cumulative time (in ticks) in various power states
system.cpu0.numCycles                        30534688                       # number of cpu cycles simulated
system.cpu0.numWorkItemsStarted                     0                       # number of work items this cpu started
system.cpu0.numWorkItemsCompleted                   0                       # number of work items this cpu completed
system.cpu0.fetch.icacheStallCycles           1385318                       # Number of cycles fetch is stalled on an Icache miss
system.cpu0.fetch.Insts                       4634551                       # Number of instructions fetch has processed
system.cpu0.fetch.Branches                    1595365                       # Number of branches that fetch encountered
system.cpu0.fetch.predictedBranches            733041                       # Number of branches that fetch has predicted taken
system.cpu0.fetch.Cycles                     29026675                       # Number of cycles fetch has run and was not squashing or blocked
system.cpu0.fetch.SquashCycles                 127376                       # Number of cycles fetch has spent squashing
system.cpu0.fetch.TlbCycles                      1261                       # Number of cycles fetch has spent waiting for tlb
system.cpu0.fetch.MiscStallCycles                 851                       # Number of cycles fetch has spent waiting on interrupts, or bad addresses, or out of MSHRs
system.cpu0.fetch.PendingTrapStallCycles        30975                       # Number of stall cycles due to pending traps
system.cpu0.fetch.PendingQuiesceStallCycles           31                       # Number of stall cycles due to pending quiesce instructions
system.cpu0.fetch.CacheLines                  1353272                       # Number of cache lines fetched
system.cpu0.fetch.IcacheSquashes                 8529                       # Number of outstanding Icache misses that were squashed
system.cpu0.fetch.ItlbSquashes                      3                       # Number of outstanding ITLB misses that were squashed
system.cpu0.fetch.rateDist::samples          30508799                       # Number of instructions fetched each cycle (Total)
system.cpu0.fetch.rateDist::mean             0.305047                       # Number of instructions fetched each cycle (Total)
system.cpu0.fetch.rateDist::stdev            1.385766                       # Number of instructions fetched each cycle (Total)
system.cpu0.fetch.rateDist::underflows              0      0.00%      0.00% # Number of instructions fetched each cycle (Total)
system.cpu0.fetch.rateDist::0                28681014     94.01%     94.01% # Number of instructions fetched each cycle (Total)
system.cpu0.fetch.rateDist::1                   25169      0.08%     94.09% # Number of instructions fetched each cycle (Total)
system.cpu0.fetch.rateDist::2                  681244      2.23%     96.32% # Number of instructions fetched each cycle (Total)
system.cpu0.fetch.rateDist::3                   28220      0.09%     96.42% # Number of instructions fetched each cycle (Total)
system.cpu0.fetch.rateDist::4                  134757      0.44%     96.86% # Number of instructions fetched each cycle (Total)
system.cpu0.fetch.rateDist::5                   52457      0.17%     97.03% # Number of instructions fetched each cycle (Total)
system.cpu0.fetch.rateDist::6                   96299      0.32%     97.35% # Number of instructions fetched each cycle (Total)
system.cpu0.fetch.rateDist::7                   21923      0.07%     97.42% # Number of instructions fetched each cycle (Total)
system.cpu0.fetch.rateDist::8                  787716      2.58%    100.00% # Number of instructions fetched each cycle (Total)
system.cpu0.fetch.rateDist::overflows               0      0.00%    100.00% # Number of instructions fetched each cycle (Total)
system.cpu0.fetch.rateDist::min_value               0                       # Number of instructions fetched each cycle (Total)
system.cpu0.fetch.rateDist::max_value               8                       # Number of instructions fetched each cycle (Total)
system.cpu0.fetch.rateDist::total            30508799                       # Number of instructions fetched each cycle (Total)
system.cpu0.fetch.branchRate                 0.052248                       # Number of branch fetches per cycle
system.cpu0.fetch.rate                       0.151780                       # Number of inst fetches per cycle
system.cpu0.decode.IdleCycles                  669121                       # Number of cycles decode is idle
system.cpu0.decode.BlockedCycles             28579105                       # Number of cycles decode is blocked
system.cpu0.decode.RunCycles                   846720                       # Number of cycles decode is running
system.cpu0.decode.UnblockCycles               350165                       # Number of cycles decode is unblocking
system.cpu0.decode.SquashCycles                 63688                       # Number of cycles decode is squashing
system.cpu0.decode.DecodedInsts               7837212                       # Number of instructions handled by decode
system.cpu0.rename.SquashCycles                 63688                       # Number of cycles rename is squashing
system.cpu0.rename.IdleCycles                  777068                       # Number of cycles rename is idle
system.cpu0.rename.BlockCycles               27271166                       # Number of cycles rename is blocking
system.cpu0.rename.serializeStallCycles         12254                       # count of cycles rename stalled for serializing inst
system.cpu0.rename.RunCycles                  1008681                       # Number of cycles rename is running
system.cpu0.rename.UnblockCycles              1375942                       # Number of cycles rename is unblocking
system.cpu0.rename.RenamedInsts               7544895                       # Number of instructions processed by rename
system.cpu0.rename.ROBFullEvents                41041                       # Number of times rename has blocked due to ROB full
system.cpu0.rename.IQFullEvents               1195419                       # Number of times rename has blocked due to IQ full
system.cpu0.rename.LQFullEvents                112747                       # Number of times rename has blocked due to LQ full
system.cpu0.rename.SQFullEvents                  1890                       # Number of times rename has blocked due to SQ full
system.cpu0.rename.RenamedOperands            9001320                       # Number of destination operands rename has renamed
system.cpu0.rename.RenameLookups             21004723                       # Number of register rename lookups that rename has made
system.cpu0.rename.int_rename_lookups         9877527                       # Number of integer rename lookups
system.cpu0.rename.fp_rename_lookups            44035                       # Number of floating rename lookups
system.cpu0.rename.CommittedMaps              3665987                       # Number of HB maps that are committed
system.cpu0.rename.UndoneMaps                 5335332                       # Number of HB maps that are undone due to squashing
system.cpu0.rename.serializingInsts               273                       # count of serializing insts renamed
system.cpu0.rename.tempSerializingInsts           322                       # count of temporary serializing insts renamed
system.cpu0.rename.skidInsts                  2217454                       # count of insts added to the skid buffer
system.cpu0.memDep0.insertedLoads             1338426                       # Number of loads inserted to the mem dependence unit.
system.cpu0.memDep0.insertedStores              87198                       # Number of stores inserted to the mem dependence unit.
system.cpu0.memDep0.conflictingLoads             4592                       # Number of conflicting loads.
system.cpu0.memDep0.conflictingStores            5444                       # Number of conflicting stores.
system.cpu0.iq.iqInstsAdded                   7175186                       # Number of instructions added to the IQ (excludes non-spec)
system.cpu0.iq.iqNonSpecInstsAdded               5249                       # Number of non-speculative instructions added to the IQ
system.cpu0.iq.iqInstsIssued                  5292910                       # Number of instructions issued
system.cpu0.iq.iqSquashedInstsIssued             7245                       # Number of squashed instructions issued
system.cpu0.iq.iqSquashedInstsExamined        4132892                       # Number of squashed instructions iterated over during squash; mainly for profiling
system.cpu0.iq.iqSquashedOperandsExamined      8675298                       # Number of squashed operands that are examined and possibly removed from graph
system.cpu0.iq.iqSquashedNonSpecRemoved          5249                       # Number of squashed non-spec instructions that were removed
system.cpu0.iq.issued_per_cycle::samples     30508799                       # Number of insts issued each cycle
system.cpu0.iq.issued_per_cycle::mean        0.173488                       # Number of insts issued each cycle
system.cpu0.iq.issued_per_cycle::stdev       0.750025                       # Number of insts issued each cycle
system.cpu0.iq.issued_per_cycle::underflows            0      0.00%      0.00% # Number of insts issued each cycle
system.cpu0.iq.issued_per_cycle::0           28269075     92.66%     92.66% # Number of insts issued each cycle
system.cpu0.iq.issued_per_cycle::1             927896      3.04%     95.70% # Number of insts issued each cycle
system.cpu0.iq.issued_per_cycle::2             481832      1.58%     97.28% # Number of insts issued each cycle
system.cpu0.iq.issued_per_cycle::3             325017      1.07%     98.34% # Number of insts issued each cycle
system.cpu0.iq.issued_per_cycle::4             290533      0.95%     99.30% # Number of insts issued each cycle
system.cpu0.iq.issued_per_cycle::5              91676      0.30%     99.60% # Number of insts issued each cycle
system.cpu0.iq.issued_per_cycle::6              74058      0.24%     99.84% # Number of insts issued each cycle
system.cpu0.iq.issued_per_cycle::7              28257      0.09%     99.93% # Number of insts issued each cycle
system.cpu0.iq.issued_per_cycle::8              20455      0.07%    100.00% # Number of insts issued each cycle
system.cpu0.iq.issued_per_cycle::overflows            0      0.00%    100.00% # Number of insts issued each cycle
system.cpu0.iq.issued_per_cycle::min_value            0                       # Number of insts issued each cycle
system.cpu0.iq.issued_per_cycle::max_value            8                       # Number of insts issued each cycle
system.cpu0.iq.issued_per_cycle::total       30508799                       # Number of insts issued each cycle
system.cpu0.iq.fu_full::No_OpClass                  0      0.00%      0.00% # attempts to use FU when none available
system.cpu0.iq.fu_full::IntAlu                  12478     71.06%     71.06% # attempts to use FU when none available
system.cpu0.iq.fu_full::IntMult                     0      0.00%     71.06% # attempts to use FU when none available
system.cpu0.iq.fu_full::IntDiv                      0      0.00%     71.06% # attempts to use FU when none available
system.cpu0.iq.fu_full::FloatAdd                 1239      7.06%     78.12% # attempts to use FU when none available
system.cpu0.iq.fu_full::FloatCmp                    0      0.00%     78.12% # attempts to use FU when none available
system.cpu0.iq.fu_full::FloatCvt                    0      0.00%     78.12% # attempts to use FU when none available
system.cpu0.iq.fu_full::FloatMult                   0      0.00%     78.12% # attempts to use FU when none available
system.cpu0.iq.fu_full::FloatMultAcc                0      0.00%     78.12% # attempts to use FU when none available
system.cpu0.iq.fu_full::FloatDiv                    0      0.00%     78.12% # attempts to use FU when none available
system.cpu0.iq.fu_full::FloatMisc                   0      0.00%     78.12% # attempts to use FU when none available
system.cpu0.iq.fu_full::FloatSqrt                   0      0.00%     78.12% # attempts to use FU when none available
system.cpu0.iq.fu_full::SimdAdd                     0      0.00%     78.12% # attempts to use FU when none available
system.cpu0.iq.fu_full::SimdAddAcc                  0      0.00%     78.12% # attempts to use FU when none available
system.cpu0.iq.fu_full::SimdAlu                     0      0.00%     78.12% # attempts to use FU when none available
system.cpu0.iq.fu_full::SimdCmp                     0      0.00%     78.12% # attempts to use FU when none available
system.cpu0.iq.fu_full::SimdCvt                     0      0.00%     78.12% # attempts to use FU when none available
system.cpu0.iq.fu_full::SimdMisc                    0      0.00%     78.12% # attempts to use FU when none available
system.cpu0.iq.fu_full::SimdMult                    0      0.00%     78.12% # attempts to use FU when none available
system.cpu0.iq.fu_full::SimdMultAcc                 0      0.00%     78.12% # attempts to use FU when none available
system.cpu0.iq.fu_full::SimdShift                   0      0.00%     78.12% # attempts to use FU when none available
system.cpu0.iq.fu_full::SimdShiftAcc                0      0.00%     78.12% # attempts to use FU when none available
system.cpu0.iq.fu_full::SimdSqrt                    0      0.00%     78.12% # attempts to use FU when none available
system.cpu0.iq.fu_full::SimdFloatAdd                0      0.00%     78.12% # attempts to use FU when none available
system.cpu0.iq.fu_full::SimdFloatAlu                0      0.00%     78.12% # attempts to use FU when none available
system.cpu0.iq.fu_full::SimdFloatCmp                0      0.00%     78.12% # attempts to use FU when none available
system.cpu0.iq.fu_full::SimdFloatCvt                0      0.00%     78.12% # attempts to use FU when none available
system.cpu0.iq.fu_full::SimdFloatDiv                0      0.00%     78.12% # attempts to use FU when none available
system.cpu0.iq.fu_full::SimdFloatMisc               0      0.00%     78.12% # attempts to use FU when none available
system.cpu0.iq.fu_full::SimdFloatMult               0      0.00%     78.12% # attempts to use FU when none available
system.cpu0.iq.fu_full::SimdFloatMultAcc            0      0.00%     78.12% # attempts to use FU when none available
system.cpu0.iq.fu_full::SimdFloatSqrt               0      0.00%     78.12% # attempts to use FU when none available
system.cpu0.iq.fu_full::MemRead                  3290     18.74%     96.86% # attempts to use FU when none available
system.cpu0.iq.fu_full::MemWrite                  304      1.73%     98.59% # attempts to use FU when none available
system.cpu0.iq.fu_full::FloatMemRead              202      1.15%     99.74% # attempts to use FU when none available
system.cpu0.iq.fu_full::FloatMemWrite              46      0.26%    100.00% # attempts to use FU when none available
system.cpu0.iq.fu_full::IprAccess                   0      0.00%    100.00% # attempts to use FU when none available
system.cpu0.iq.fu_full::InstPrefetch                0      0.00%    100.00% # attempts to use FU when none available
system.cpu0.iq.FU_type_0::No_OpClass            17240      0.33%      0.33% # Type of FU issued
system.cpu0.iq.FU_type_0::IntAlu              4347519     82.14%     82.46% # Type of FU issued
system.cpu0.iq.FU_type_0::IntMult                1508      0.03%     82.49% # Type of FU issued
system.cpu0.iq.FU_type_0::IntDiv                11458      0.22%     82.71% # Type of FU issued
system.cpu0.iq.FU_type_0::FloatAdd              15795      0.30%     83.01% # Type of FU issued
system.cpu0.iq.FU_type_0::FloatCmp                  0      0.00%     83.01% # Type of FU issued
system.cpu0.iq.FU_type_0::FloatCvt                  0      0.00%     83.01% # Type of FU issued
system.cpu0.iq.FU_type_0::FloatMult                 0      0.00%     83.01% # Type of FU issued
system.cpu0.iq.FU_type_0::FloatMultAcc              0      0.00%     83.01% # Type of FU issued
system.cpu0.iq.FU_type_0::FloatDiv                  0      0.00%     83.01% # Type of FU issued
system.cpu0.iq.FU_type_0::FloatMisc                 0      0.00%     83.01% # Type of FU issued
system.cpu0.iq.FU_type_0::FloatSqrt                 0      0.00%     83.01% # Type of FU issued
system.cpu0.iq.FU_type_0::SimdAdd                   0      0.00%     83.01% # Type of FU issued
system.cpu0.iq.FU_type_0::SimdAddAcc                0      0.00%     83.01% # Type of FU issued
system.cpu0.iq.FU_type_0::SimdAlu                   0      0.00%     83.01% # Type of FU issued
system.cpu0.iq.FU_type_0::SimdCmp                   0      0.00%     83.01% # Type of FU issued
system.cpu0.iq.FU_type_0::SimdCvt                   0      0.00%     83.01% # Type of FU issued
system.cpu0.iq.FU_type_0::SimdMisc                  0      0.00%     83.01% # Type of FU issued
system.cpu0.iq.FU_type_0::SimdMult                  0      0.00%     83.01% # Type of FU issued
system.cpu0.iq.FU_type_0::SimdMultAcc               0      0.00%     83.01% # Type of FU issued
system.cpu0.iq.FU_type_0::SimdShift                 0      0.00%     83.01% # Type of FU issued
system.cpu0.iq.FU_type_0::SimdShiftAcc              0      0.00%     83.01% # Type of FU issued
system.cpu0.iq.FU_type_0::SimdSqrt                  0      0.00%     83.01% # Type of FU issued
system.cpu0.iq.FU_type_0::SimdFloatAdd              0      0.00%     83.01% # Type of FU issued
system.cpu0.iq.FU_type_0::SimdFloatAlu              0      0.00%     83.01% # Type of FU issued
system.cpu0.iq.FU_type_0::SimdFloatCmp              0      0.00%     83.01% # Type of FU issued
system.cpu0.iq.FU_type_0::SimdFloatCvt              0      0.00%     83.01% # Type of FU issued
system.cpu0.iq.FU_type_0::SimdFloatDiv              0      0.00%     83.01% # Type of FU issued
system.cpu0.iq.FU_type_0::SimdFloatMisc             0      0.00%     83.01% # Type of FU issued
system.cpu0.iq.FU_type_0::SimdFloatMult             0      0.00%     83.01% # Type of FU issued
system.cpu0.iq.FU_type_0::SimdFloatMultAcc            0      0.00%     83.01% # Type of FU issued
system.cpu0.iq.FU_type_0::SimdFloatSqrt             0      0.00%     83.01% # Type of FU issued
system.cpu0.iq.FU_type_0::MemRead              831507     15.71%     98.72% # Type of FU issued
system.cpu0.iq.FU_type_0::MemWrite              64278      1.21%     99.93% # Type of FU issued
system.cpu0.iq.FU_type_0::FloatMemRead           3468      0.07%    100.00% # Type of FU issued
system.cpu0.iq.FU_type_0::FloatMemWrite           137      0.00%    100.00% # Type of FU issued
system.cpu0.iq.FU_type_0::IprAccess                 0      0.00%    100.00% # Type of FU issued
system.cpu0.iq.FU_type_0::InstPrefetch              0      0.00%    100.00% # Type of FU issued
system.cpu0.iq.FU_type_0::total               5292910                       # Type of FU issued
system.cpu0.iq.rate                          0.173341                       # Inst issue rate
system.cpu0.iq.fu_busy_cnt                      17559                       # FU busy when requested
system.cpu0.iq.fu_busy_rate                  0.003317                       # FU busy rate (busy events/executed inst)
system.cpu0.iq.int_inst_queue_reads          41078808                       # Number of integer instruction queue reads
system.cpu0.iq.int_inst_queue_writes         11275928                       # Number of integer instruction queue writes
system.cpu0.iq.int_inst_queue_wakeup_accesses      5089786                       # Number of integer instruction queue wakeup accesses
system.cpu0.iq.fp_inst_queue_reads              40615                       # Number of floating instruction queue reads
system.cpu0.iq.fp_inst_queue_writes             37404                       # Number of floating instruction queue writes
system.cpu0.iq.fp_inst_queue_wakeup_accesses        17194                       # Number of floating instruction queue wakeup accesses
system.cpu0.iq.vec_inst_queue_reads                 0                       # Number of vector instruction queue reads
system.cpu0.iq.vec_inst_queue_writes                0                       # Number of vector instruction queue writes
system.cpu0.iq.vec_inst_queue_wakeup_accesses            0                       # Number of vector instruction queue wakeup accesses
system.cpu0.iq.int_alu_accesses               5272333                       # Number of integer alu accesses
system.cpu0.iq.fp_alu_accesses                  20896                       # Number of floating point alu accesses
system.cpu0.iq.vec_alu_accesses                     0                       # Number of vector alu accesses
system.cpu0.iew.lsq.thread0.forwLoads            5243                       # Number of loads that had data forwarded from stores
system.cpu0.iew.lsq.thread0.invAddrLoads            0                       # Number of loads ignored due to an invalid address
system.cpu0.iew.lsq.thread0.squashedLoads       773310                       # Number of loads squashed
system.cpu0.iew.lsq.thread0.ignoredResponses          189                       # Number of memory responses ignored because the instruction is squashed
system.cpu0.iew.lsq.thread0.memOrderViolation            7                       # Number of memory ordering violations
system.cpu0.iew.lsq.thread0.squashedStores        54114                       # Number of stores squashed
system.cpu0.iew.lsq.thread0.invAddrSwpfs            0                       # Number of software prefetches ignored due to an invalid address
system.cpu0.iew.lsq.thread0.blockedLoads            0                       # Number of blocked loads due to partial load-store forwarding
system.cpu0.iew.lsq.thread0.rescheduledLoads           34                       # Number of loads that were rescheduled
system.cpu0.iew.lsq.thread0.cacheBlocked         1880                       # Number of times an access to memory failed due to the cache being blocked
system.cpu0.iew.iewIdleCycles                       0                       # Number of cycles IEW is idle
system.cpu0.iew.iewSquashCycles                 63688                       # Number of cycles IEW is squashing
system.cpu0.iew.iewBlockCycles               25555988                       # Number of cycles IEW is blocking
system.cpu0.iew.iewUnblockCycles               265383                       # Number of cycles IEW is unblocking
system.cpu0.iew.iewDispatchedInsts            7180435                       # Number of instructions dispatched to IQ
system.cpu0.iew.iewDispSquashedInsts             3564                       # Number of squashed instructions skipped by dispatch
system.cpu0.iew.iewDispLoadInsts              1338426                       # Number of dispatched load instructions
system.cpu0.iew.iewDispStoreInsts               87198                       # Number of dispatched store instructions
system.cpu0.iew.iewDispNonSpecInsts              1933                       # Number of dispatched non-speculative instructions
system.cpu0.iew.iewIQFullEvents                 17330                       # Number of times the IQ has become full, causing a stall
system.cpu0.iew.iewLSQFullEvents                26923                       # Number of times the LSQ has become full, causing a stall
system.cpu0.iew.memOrderViolationEvents             7                       # Number of memory order violations
system.cpu0.iew.predictedTakenIncorrect         33690                       # Number of branches that were predicted taken incorrectly
system.cpu0.iew.predictedNotTakenIncorrect        37845                       # Number of branches that were predicted not taken incorrectly
system.cpu0.iew.branchMispredicts               71535                       # Number of branch mispredicts detected at execute
system.cpu0.iew.iewExecutedInsts              5202972                       # Number of executed instructions
system.cpu0.iew.iewExecLoadInsts               800591                       # Number of load instructions executed
system.cpu0.iew.iewExecSquashedInsts            89938                       # Number of squashed instructions skipped in execute
system.cpu0.iew.exec_swp                            0                       # number of swp insts executed
system.cpu0.iew.exec_nop                            0                       # number of nop insts executed
system.cpu0.iew.exec_refs                      860207                       # number of memory reference insts executed
system.cpu0.iew.exec_branches                  657906                       # Number of branches executed
system.cpu0.iew.exec_stores                     59616                       # Number of stores executed
system.cpu0.iew.exec_rate                    0.170395                       # Inst execution rate
system.cpu0.iew.wb_sent                       5123332                       # cumulative count of insts sent to commit
system.cpu0.iew.wb_count                      5106980                       # cumulative count of insts written-back
system.cpu0.iew.wb_producers                  3681647                       # num instructions producing a value
system.cpu0.iew.wb_consumers                  5990827                       # num instructions consuming a value
system.cpu0.iew.wb_rate                      0.167252                       # insts written-back per cycle
system.cpu0.iew.wb_fanout                    0.614547                       # average fanout of values written-back
system.cpu0.commit.commitSquashedInsts        4133167                       # The number of squashed insts skipped by commit
system.cpu0.commit.branchMispredicts            63685                       # The number of times a branch was mispredicted
system.cpu0.commit.committed_per_cycle::samples     29929705                       # Number of insts commited each cycle
system.cpu0.commit.committed_per_cycle::mean     0.101823                       # Number of insts commited each cycle
system.cpu0.commit.committed_per_cycle::stdev     0.586804                       # Number of insts commited each cycle
system.cpu0.commit.committed_per_cycle::underflows            0      0.00%      0.00% # Number of insts commited each cycle
system.cpu0.commit.committed_per_cycle::0     28604981     95.57%     95.57% # Number of insts commited each cycle
system.cpu0.commit.committed_per_cycle::1       602973      2.01%     97.59% # Number of insts commited each cycle
system.cpu0.commit.committed_per_cycle::2       156119      0.52%     98.11% # Number of insts commited each cycle
system.cpu0.commit.committed_per_cycle::3       408712      1.37%     99.48% # Number of insts commited each cycle
system.cpu0.commit.committed_per_cycle::4        57418      0.19%     99.67% # Number of insts commited each cycle
system.cpu0.commit.committed_per_cycle::5        33628      0.11%     99.78% # Number of insts commited each cycle
system.cpu0.commit.committed_per_cycle::6         7110      0.02%     99.80% # Number of insts commited each cycle
system.cpu0.commit.committed_per_cycle::7         4389      0.01%     99.82% # Number of insts commited each cycle
system.cpu0.commit.committed_per_cycle::8        54375      0.18%    100.00% # Number of insts commited each cycle
system.cpu0.commit.committed_per_cycle::overflows            0      0.00%    100.00% # Number of insts commited each cycle
system.cpu0.commit.committed_per_cycle::min_value            0                       # Number of insts commited each cycle
system.cpu0.commit.committed_per_cycle::max_value            8                       # Number of insts commited each cycle
system.cpu0.commit.committed_per_cycle::total     29929705                       # Number of insts commited each cycle
system.cpu0.commit.committedInsts             1526274                       # Number of instructions committed
system.cpu0.commit.committedOps               3047542                       # Number of ops (including micro ops) committed
system.cpu0.commit.swp_count                        0                       # Number of s/w prefetches committed
system.cpu0.commit.refs                        598201                       # Number of memory references committed
system.cpu0.commit.loads                       565117                       # Number of loads committed
system.cpu0.commit.membars                          0                       # Number of memory barriers committed
system.cpu0.commit.branches                    545206                       # Number of branches committed
system.cpu0.commit.vec_insts                        0                       # Number of committed Vector instructions.
system.cpu0.commit.fp_insts                     13374                       # Number of committed floating point instructions.
system.cpu0.commit.int_insts                  3034032                       # Number of committed integer instructions.
system.cpu0.commit.function_calls                5850                       # Number of function calls committed.
system.cpu0.commit.op_class_0::No_OpClass         4060      0.13%      0.13% # Class of committed instruction
system.cpu0.commit.op_class_0::IntAlu         2423713     79.53%     79.66% # Class of committed instruction
system.cpu0.commit.op_class_0::IntMult            234      0.01%     79.67% # Class of committed instruction
system.cpu0.commit.op_class_0::IntDiv            9922      0.33%     80.00% # Class of committed instruction
system.cpu0.commit.op_class_0::FloatAdd         11412      0.37%     80.37% # Class of committed instruction
system.cpu0.commit.op_class_0::FloatCmp             0      0.00%     80.37% # Class of committed instruction
system.cpu0.commit.op_class_0::FloatCvt             0      0.00%     80.37% # Class of committed instruction
system.cpu0.commit.op_class_0::FloatMult            0      0.00%     80.37% # Class of committed instruction
system.cpu0.commit.op_class_0::FloatMultAcc            0      0.00%     80.37% # Class of committed instruction
system.cpu0.commit.op_class_0::FloatDiv             0      0.00%     80.37% # Class of committed instruction
system.cpu0.commit.op_class_0::FloatMisc            0      0.00%     80.37% # Class of committed instruction
system.cpu0.commit.op_class_0::FloatSqrt            0      0.00%     80.37% # Class of committed instruction
system.cpu0.commit.op_class_0::SimdAdd              0      0.00%     80.37% # Class of committed instruction
system.cpu0.commit.op_class_0::SimdAddAcc            0      0.00%     80.37% # Class of committed instruction
system.cpu0.commit.op_class_0::SimdAlu              0      0.00%     80.37% # Class of committed instruction
system.cpu0.commit.op_class_0::SimdCmp              0      0.00%     80.37% # Class of committed instruction
system.cpu0.commit.op_class_0::SimdCvt              0      0.00%     80.37% # Class of committed instruction
system.cpu0.commit.op_class_0::SimdMisc             0      0.00%     80.37% # Class of committed instruction
system.cpu0.commit.op_class_0::SimdMult             0      0.00%     80.37% # Class of committed instruction
system.cpu0.commit.op_class_0::SimdMultAcc            0      0.00%     80.37% # Class of committed instruction
system.cpu0.commit.op_class_0::SimdShift            0      0.00%     80.37% # Class of committed instruction
system.cpu0.commit.op_class_0::SimdShiftAcc            0      0.00%     80.37% # Class of committed instruction
system.cpu0.commit.op_class_0::SimdSqrt             0      0.00%     80.37% # Class of committed instruction
system.cpu0.commit.op_class_0::SimdFloatAdd            0      0.00%     80.37% # Class of committed instruction
system.cpu0.commit.op_class_0::SimdFloatAlu            0      0.00%     80.37% # Class of committed instruction
system.cpu0.commit.op_class_0::SimdFloatCmp            0      0.00%     80.37% # Class of committed instruction
system.cpu0.commit.op_class_0::SimdFloatCvt            0      0.00%     80.37% # Class of committed instruction
system.cpu0.commit.op_class_0::SimdFloatDiv            0      0.00%     80.37% # Class of committed instruction
system.cpu0.commit.op_class_0::SimdFloatMisc            0      0.00%     80.37% # Class of committed instruction
system.cpu0.commit.op_class_0::SimdFloatMult            0      0.00%     80.37% # Class of committed instruction
system.cpu0.commit.op_class_0::SimdFloatMultAcc            0      0.00%     80.37% # Class of committed instruction
system.cpu0.commit.op_class_0::SimdFloatSqrt            0      0.00%     80.37% # Class of committed instruction
system.cpu0.commit.op_class_0::MemRead         563155     18.48%     98.85% # Class of committed instruction
system.cpu0.commit.op_class_0::MemWrite         33084      1.09%     99.94% # Class of committed instruction
system.cpu0.commit.op_class_0::FloatMemRead         1962      0.06%    100.00% # Class of committed instruction
system.cpu0.commit.op_class_0::FloatMemWrite            0      0.00%    100.00% # Class of committed instruction
system.cpu0.commit.op_class_0::IprAccess            0      0.00%    100.00% # Class of committed instruction
system.cpu0.commit.op_class_0::InstPrefetch            0      0.00%    100.00% # Class of committed instruction
system.cpu0.commit.op_class_0::total          3047542                       # Class of committed instruction
system.cpu0.commit.bw_lim_events                54375                       # number cycles where commit BW limit reached
system.cpu0.rob.rob_reads                    37056039                       # The number of ROB reads
system.cpu0.rob.rob_writes                   14942269                       # The number of ROB writes
system.cpu0.timesIdled                            239                       # Number of times that the entire CPU went into an idle state and unscheduled itself
system.cpu0.idleCycles                          25889                       # Total number of cycles that the CPU has spent unscheduled due to idling
system.cpu0.committedInsts                    1526274                       # Number of Instructions Simulated
system.cpu0.committedOps                      3047542                       # Number of Ops (including micro ops) Simulated
system.cpu0.cpi                             20.006033                       # CPI: Cycles Per Instruction
system.cpu0.cpi_total                       20.006033                       # CPI: Total CPI of All Threads
system.cpu0.ipc                              0.049985                       # IPC: Instructions Per Cycle
system.cpu0.ipc_total                        0.049985                       # IPC: Total IPC of All Threads
system.cpu0.int_regfile_reads                 5351929                       # number of integer regfile reads
system.cpu0.int_regfile_writes                4397842                       # number of integer regfile writes
system.cpu0.fp_regfile_reads                    30335                       # number of floating regfile reads
system.cpu0.fp_regfile_writes                   15108                       # number of floating regfile writes
system.cpu0.cc_regfile_reads                  3494015                       # number of cc regfile reads
system.cpu0.cc_regfile_writes                 1476231                       # number of cc regfile writes
system.cpu0.misc_regfile_reads                2746298                       # number of misc regfile reads
system.cpu0.dcache.tags.pwrStateResidencyTicks::UNDEFINED  15267344125                       # Cumulative time (in ticks) in various power states
system.cpu0.dcache.tags.replacements           298766                       # number of replacements
system.cpu0.dcache.tags.tagsinuse                1024                       # Cycle average of tags in use
system.cpu0.dcache.tags.total_refs             306407                       # Total number of references to valid blocks.
system.cpu0.dcache.tags.sampled_refs           298766                       # Sample count of references to valid blocks.
system.cpu0.dcache.tags.avg_refs             1.025575                       # Average number of references to valid blocks.
system.cpu0.dcache.tags.warmup_cycle                0                       # Cycle when the warmup percentage was hit.
system.cpu0.dcache.tags.occ_blocks::cpu0.data         1024                       # Average occupied blocks per requestor
system.cpu0.dcache.tags.occ_percent::cpu0.data            1                       # Average percentage of cache occupancy
system.cpu0.dcache.tags.occ_percent::total            1                       # Average percentage of cache occupancy
system.cpu0.dcache.tags.occ_task_id_blocks::1024         1024                       # Occupied blocks per task id
system.cpu0.dcache.tags.age_task_id_blocks_1024::0          145                       # Occupied blocks per task id
system.cpu0.dcache.tags.age_task_id_blocks_1024::1          783                       # Occupied blocks per task id
system.cpu0.dcache.tags.age_task_id_blocks_1024::2           96                       # Occupied blocks per task id
system.cpu0.dcache.tags.occ_task_id_percent::1024            1                       # Percentage of cache occupancy per task id
system.cpu0.dcache.tags.tag_accesses          3592514                       # Number of tag accesses
system.cpu0.dcache.tags.data_accesses         3592514                       # Number of data accesses
system.cpu0.dcache.pwrStateResidencyTicks::UNDEFINED  15267344125                       # Cumulative time (in ticks) in various power states
system.cpu0.dcache.ReadReq_hits::cpu0.data       275787                       # number of ReadReq hits
system.cpu0.dcache.ReadReq_hits::total         275787                       # number of ReadReq hits
system.cpu0.dcache.WriteReq_hits::cpu0.data        31916                       # number of WriteReq hits
system.cpu0.dcache.WriteReq_hits::total         31916                       # number of WriteReq hits
system.cpu0.dcache.demand_hits::cpu0.data       307703                       # number of demand (read+write) hits
system.cpu0.dcache.demand_hits::total          307703                       # number of demand (read+write) hits
system.cpu0.dcache.overall_hits::cpu0.data       307703                       # number of overall hits
system.cpu0.dcache.overall_hits::total         307703                       # number of overall hits
system.cpu0.dcache.ReadReq_misses::cpu0.data       514566                       # number of ReadReq misses
system.cpu0.dcache.ReadReq_misses::total       514566                       # number of ReadReq misses
system.cpu0.dcache.WriteReq_misses::cpu0.data         1168                       # number of WriteReq misses
system.cpu0.dcache.WriteReq_misses::total         1168                       # number of WriteReq misses
system.cpu0.dcache.demand_misses::cpu0.data       515734                       # number of demand (read+write) misses
system.cpu0.dcache.demand_misses::total        515734                       # number of demand (read+write) misses
system.cpu0.dcache.overall_misses::cpu0.data       515734                       # number of overall misses
system.cpu0.dcache.overall_misses::total       515734                       # number of overall misses
system.cpu0.dcache.ReadReq_miss_latency::cpu0.data  33485894000                       # number of ReadReq miss cycles
system.cpu0.dcache.ReadReq_miss_latency::total  33485894000                       # number of ReadReq miss cycles
system.cpu0.dcache.WriteReq_miss_latency::cpu0.data     45660497                       # number of WriteReq miss cycles
system.cpu0.dcache.WriteReq_miss_latency::total     45660497                       # number of WriteReq miss cycles
system.cpu0.dcache.demand_miss_latency::cpu0.data  33531554497                       # number of demand (read+write) miss cycles
system.cpu0.dcache.demand_miss_latency::total  33531554497                       # number of demand (read+write) miss cycles
system.cpu0.dcache.overall_miss_latency::cpu0.data  33531554497                       # number of overall miss cycles
system.cpu0.dcache.overall_miss_latency::total  33531554497                       # number of overall miss cycles
system.cpu0.dcache.ReadReq_accesses::cpu0.data       790353                       # number of ReadReq accesses(hits+misses)
system.cpu0.dcache.ReadReq_accesses::total       790353                       # number of ReadReq accesses(hits+misses)
system.cpu0.dcache.WriteReq_accesses::cpu0.data        33084                       # number of WriteReq accesses(hits+misses)
system.cpu0.dcache.WriteReq_accesses::total        33084                       # number of WriteReq accesses(hits+misses)
system.cpu0.dcache.demand_accesses::cpu0.data       823437                       # number of demand (read+write) accesses
system.cpu0.dcache.demand_accesses::total       823437                       # number of demand (read+write) accesses
system.cpu0.dcache.overall_accesses::cpu0.data       823437                       # number of overall (read+write) accesses
system.cpu0.dcache.overall_accesses::total       823437                       # number of overall (read+write) accesses
system.cpu0.dcache.ReadReq_miss_rate::cpu0.data     0.651058                       # miss rate for ReadReq accesses
system.cpu0.dcache.ReadReq_miss_rate::total     0.651058                       # miss rate for ReadReq accesses
system.cpu0.dcache.WriteReq_miss_rate::cpu0.data     0.035304                       # miss rate for WriteReq accesses
system.cpu0.dcache.WriteReq_miss_rate::total     0.035304                       # miss rate for WriteReq accesses
system.cpu0.dcache.demand_miss_rate::cpu0.data     0.626319                       # miss rate for demand accesses
system.cpu0.dcache.demand_miss_rate::total     0.626319                       # miss rate for demand accesses
system.cpu0.dcache.overall_miss_rate::cpu0.data     0.626319                       # miss rate for overall accesses
system.cpu0.dcache.overall_miss_rate::total     0.626319                       # miss rate for overall accesses
system.cpu0.dcache.ReadReq_avg_miss_latency::cpu0.data 65075.994139                       # average ReadReq miss latency
system.cpu0.dcache.ReadReq_avg_miss_latency::total 65075.994139                       # average ReadReq miss latency
[...]
system.l2.ReadSharedReq_hits::cpu0.data        117499                       # number of ReadSharedReq hits
system.l2.ReadSharedReq_hits::total            117499                       # number of ReadSharedReq hits
system.l2.demand_hits::cpu0.data               118344                       # number of demand (read+write) hits
system.l2.demand_hits::total                   118344                       # number of demand (read+write) hits
system.l2.overall_hits::cpu0.data              118344                       # number of overall hits
system.l2.overall_hits::total                  118344                       # number of overall hits
system.l2.ReadExReq_misses::cpu0.data             321                       # number of ReadExReq misses
system.l2.ReadExReq_misses::total                 321                       # number of ReadExReq misses
system.l2.ReadSharedReq_misses::cpu0.data       180101                       # number of ReadSharedReq misses
system.l2.ReadSharedReq_misses::total          180101                       # number of ReadSharedReq misses
system.l2.demand_misses::cpu0.data             180422                       # number of demand (read+write) misses
system.l2.demand_misses::total                 180422                       # number of demand (read+write) misses
system.l2.overall_misses::cpu0.data            180422                       # number of overall misses
system.l2.overall_misses::total                180422                       # number of overall misses
system.l2.ReadExReq_miss_latency::cpu0.data     33298500                       # number of ReadExReq miss cycles
system.l2.ReadExReq_miss_latency::total      33298500                       # number of ReadExReq miss cycles
system.l2.ReadSharedReq_miss_latency::cpu0.data  17182942000                       # number of ReadSharedReq miss cycles
system.l2.ReadSharedReq_miss_latency::total  17182942000                       # number of ReadSharedReq miss cycles
system.l2.demand_miss_latency::cpu0.data  17216240500                       # number of demand (read+write) miss cycles
system.l2.demand_miss_latency::total      17216240500                       # number of demand (read+write) miss cycles
system.l2.overall_miss_latency::cpu0.data  17216240500                       # number of overall miss cycles
system.l2.overall_miss_latency::total     17216240500                       # number of overall miss cycles
system.l2.WritebackDirty_accesses::writebacks         3293                       # number of WritebackDirty accesses(hits+misses)
system.l2.WritebackDirty_accesses::total         3293                       # number of WritebackDirty accesses(hits+misses)
system.l2.ReadExReq_accesses::cpu0.data          1166                       # number of ReadExReq accesses(hits+misses)
system.l2.ReadExReq_accesses::total              1166                       # number of ReadExReq accesses(hits+misses)
system.l2.ReadSharedReq_accesses::cpu0.data       297600                       # number of ReadSharedReq accesses(hits+misses)
system.l2.ReadSharedReq_accesses::total        297600                       # number of ReadSharedReq accesses(hits+misses)
system.l2.demand_accesses::cpu0.data           298766                       # number of demand (read+write) accesses
system.l2.demand_accesses::total               298766                       # number of demand (read+write) accesses
system.l2.overall_accesses::cpu0.data          298766                       # number of overall (read+write) accesses
system.l2.overall_accesses::total              298766                       # number of overall (read+write) accesses
system.l2.ReadExReq_miss_rate::cpu0.data     0.275300                       # miss rate for ReadExReq accesses
system.l2.ReadExReq_miss_rate::total         0.275300                       # miss rate for ReadExReq accesses
system.l2.ReadSharedReq_miss_rate::cpu0.data     0.605178                       # miss rate for ReadSharedReq accesses
system.l2.ReadSharedReq_miss_rate::total     0.605178                       # miss rate for ReadSharedReq accesses
system.l2.demand_miss_rate::cpu0.data        0.603891                       # miss rate for demand accesses
system.l2.demand_miss_rate::total            0.603891                       # miss rate for demand accesses
system.l2.overall_miss_rate::cpu0.data       0.603891                       # miss rate for overall accesses
system.l2.overall_miss_rate::total           0.603891                       # miss rate for overall accesses
system.l2.ReadExReq_avg_miss_latency::cpu0.data 103733.644860                       # average ReadExReq miss latency
system.l2.ReadExReq_avg_miss_latency::total 103733.644860                       # average ReadExReq miss latency
system.l2.ReadSharedReq_avg_miss_latency::cpu0.data 95407.254818                       # average ReadSharedReq miss latency
system.l2.ReadSharedReq_avg_miss_latency::total 95407.254818                       # average ReadSharedReq miss latency
system.l2.demand_avg_miss_latency::cpu0.data 95422.068816                       # average overall miss latency
system.l2.demand_avg_miss_latency::total 95422.068816                       # average overall miss latency
system.l2.overall_avg_miss_latency::cpu0.data 95422.068816                       # average overall miss latency
system.l2.overall_avg_miss_latency::total 95422.068816                       # average overall miss latency
system.l2.blocked_cycles::no_mshrs                  0                       # number of cycles access was blocked
system.l2.blocked_cycles::no_targets                0                       # number of cycles access was blocked
system.l2.blocked::no_mshrs                         0                       # number of cycles access was blocked
system.l2.blocked::no_targets                       0                       # number of cycles access was blocked
system.l2.avg_blocked_cycles::no_mshrs            nan                       # average number of cycles each access was blocked
system.l2.avg_blocked_cycles::no_targets          nan                       # average number of cycles each access was blocked
system.l2.writebacks::writebacks                  420                       # number of writebacks
system.l2.writebacks::total                       420                       # number of writebacks
system.l2.ReadExReq_mshr_misses::cpu0.data          321                       # number of ReadExReq MSHR misses
system.l2.ReadExReq_mshr_misses::total            321                       # number of ReadExReq MSHR misses
system.l2.ReadSharedReq_mshr_misses::cpu0.data       180101                       # number of ReadSharedReq MSHR misses
system.l2.ReadSharedReq_mshr_misses::total       180101                       # number of ReadSharedReq MSHR misses
system.l2.demand_mshr_misses::cpu0.data        180422                       # number of demand (read+write) MSHR misses
system.l2.demand_mshr_misses::total            180422                       # number of demand (read+write) MSHR misses
system.l2.overall_mshr_misses::cpu0.data       180422                       # number of overall MSHR misses
system.l2.overall_mshr_misses::total           180422                       # number of overall MSHR misses
system.l2.ReadExReq_mshr_miss_latency::cpu0.data     30088500                       # number of ReadExReq MSHR miss cycles
system.l2.ReadExReq_mshr_miss_latency::total     30088500                       # number of ReadExReq MSHR miss cycles
system.l2.ReadSharedReq_mshr_miss_latency::cpu0.data  15381932000                       # number of ReadSharedReq MSHR miss cycles
system.l2.ReadSharedReq_mshr_miss_latency::total  15381932000                       # number of ReadSharedReq MSHR miss cycles
system.l2.demand_mshr_miss_latency::cpu0.data  15412020500                       # number of demand (read+write) MSHR miss cycles
system.l2.demand_mshr_miss_latency::total  15412020500                       # number of demand (read+write) MSHR miss cycles
system.l2.overall_mshr_miss_latency::cpu0.data  15412020500                       # number of overall MSHR miss cycles
system.l2.overall_mshr_miss_latency::total  15412020500                       # number of overall MSHR miss cycles
system.l2.ReadExReq_mshr_miss_rate::cpu0.data     0.275300                       # mshr miss rate for ReadExReq accesses
system.l2.ReadExReq_mshr_miss_rate::total     0.275300                       # mshr miss rate for ReadExReq accesses
system.l2.ReadSharedReq_mshr_miss_rate::cpu0.data     0.605178                       # mshr miss rate for ReadSharedReq accesses
system.l2.ReadSharedReq_mshr_miss_rate::total     0.605178                       # mshr miss rate for ReadSharedReq accesses
system.l2.demand_mshr_miss_rate::cpu0.data     0.603891                       # mshr miss rate for demand accesses
system.l2.demand_mshr_miss_rate::total       0.603891                       # mshr miss rate for demand accesses
system.l2.overall_mshr_miss_rate::cpu0.data     0.603891                       # mshr miss rate for overall accesses
system.l2.overall_mshr_miss_rate::total      0.603891                       # mshr miss rate for overall accesses
system.l2.ReadExReq_avg_mshr_miss_latency::cpu0.data 93733.644860                       # average ReadExReq mshr miss latency
system.l2.ReadExReq_avg_mshr_miss_latency::total 93733.644860                       # average ReadExReq mshr miss latency
system.l2.ReadSharedReq_avg_mshr_miss_latency::cpu0.data 85407.254818                       # average ReadSharedReq mshr miss latency
system.l2.ReadSharedReq_avg_mshr_miss_latency::total 85407.254818                       # average ReadSharedReq mshr miss latency
system.l2.demand_avg_mshr_miss_latency::cpu0.data 85422.068816                       # average overall mshr miss latency
system.l2.demand_avg_mshr_miss_latency::total 85422.068816                       # average overall mshr miss latency
system.l2.overall_avg_mshr_miss_latency::cpu0.data 85422.068816                       # average overall mshr miss latency
system.l2.overall_avg_mshr_miss_latency::total 85422.068816                       # average overall mshr miss latency
system.membus.snoop_filter.tot_requests        360840                       # Total number of requests made to the snoop filter.
system.membus.snoop_filter.hit_single_requests       180423                       # Number of requests hitting in the snoop filter with a single holder of the requested data.
system.membus.snoop_filter.hit_multi_requests            0                       # Number of requests hitting in the snoop filter with multiple (>1) holders of the requested data.
system.membus.snoop_filter.tot_snoops               0                       # Total number of snoops made to the snoop filter.
system.membus.snoop_filter.hit_single_snoops            0                       # Number of snoops hitting in the snoop filter with a single holder of the requested data.
system.membus.snoop_filter.hit_multi_snoops            0                       # Number of snoops hitting in the snoop filter with multiple (>1) holders of the requested data.
system.membus.pwrStateResidencyTicks::UNDEFINED  15267344125                       # Cumulative time (in ticks) in various power states
system.membus.trans_dist::ReadResp             180101                       # Transaction distribution
system.membus.trans_dist::WritebackDirty          420                       # Transaction distribution
system.membus.trans_dist::CleanEvict           179998                       # Transaction distribution
system.membus.trans_dist::ReadExReq               321                       # Transaction distribution
system.membus.trans_dist::ReadExResp              321                       # Transaction distribution
system.membus.trans_dist::ReadSharedReq        180101                       # Transaction distribution
system.membus.pkt_count_system.l2.mem_side::system.mem_ctrls.port       541262                       # Packet count per connected master and slave (bytes)
system.membus.pkt_count_system.l2.mem_side::total       541262                       # Packet count per connected master and slave (bytes)
system.membus.pkt_count::total                 541262                       # Packet count per connected master and slave (bytes)
system.membus.pkt_size_system.l2.mem_side::system.mem_ctrls.port     11573888                       # Cumulative packet size per connected master and slave (bytes)
system.membus.pkt_size_system.l2.mem_side::total     11573888                       # Cumulative packet size per connected master and slave (bytes)
system.membus.pkt_size::total                11573888                       # Cumulative packet size per connected master and slave (bytes)
system.membus.snoops                                0                       # Total snoops (count)
system.membus.snoopTraffic                          0                       # Total snoop traffic (bytes)
system.membus.snoop_fanout::samples            180422                       # Request fanout histogram
system.membus.snoop_fanout::mean                    0                       # Request fanout histogram
system.membus.snoop_fanout::stdev                   0                       # Request fanout histogram
system.membus.snoop_fanout::underflows              0      0.00%      0.00% # Request fanout histogram
system.membus.snoop_fanout::0                  180422    100.00%    100.00% # Request fanout histogram
system.membus.snoop_fanout::1                       0      0.00%    100.00% # Request fanout histogram
system.membus.snoop_fanout::overflows               0      0.00%    100.00% # Request fanout histogram
system.membus.snoop_fanout::min_value               0                       # Request fanout histogram
system.membus.snoop_fanout::max_value               0                       # Request fanout histogram
system.membus.snoop_fanout::total              180422                       # Request fanout histogram
system.membus.reqLayer8.occupancy           425388500                       # Layer occupancy (ticks)
system.membus.reqLayer8.utilization               2.8                       # Layer utilization (%)
system.membus.respLayer1.occupancy          978471750                       # Layer occupancy (ticks)
system.membus.respLayer1.utilization              6.4                       # Layer utilization (%)
system.tol2bus.snoop_filter.tot_requests       597532                       # Total number of requests made to the snoop filter.
system.tol2bus.snoop_filter.hit_single_requests       298769                       # Number of requests hitting in the snoop filter with a single holder of the requested data.
system.tol2bus.snoop_filter.hit_multi_requests          750                       # Number of requests hitting in the snoop filter with multiple (>1) holders of the requested data.
system.tol2bus.snoop_filter.tot_snoops              4                       # Total number of snoops made to the snoop filter.
system.tol2bus.snoop_filter.hit_single_snoops            4                       # Number of snoops hitting in the snoop filter with a single holder of the requested data.
system.tol2bus.snoop_filter.hit_multi_snoops            0                       # Number of snoops hitting in the snoop filter with multiple (>1) holders of the requested data.
system.tol2bus.pwrStateResidencyTicks::UNDEFINED  15267344125                       # Cumulative time (in ticks) in various power states
system.tol2bus.trans_dist::ReadResp            297600                       # Transaction distribution
system.tol2bus.trans_dist::WritebackDirty         3713                       # Transaction distribution
system.tol2bus.trans_dist::CleanEvict          475475                       # Transaction distribution
system.tol2bus.trans_dist::ReadExReq             1166                       # Transaction distribution
system.tol2bus.trans_dist::ReadExResp            1166                       # Transaction distribution
system.tol2bus.trans_dist::ReadSharedReq       297600                       # Transaction distribution
system.tol2bus.pkt_count_system.cpu0.dcache.mem_side::system.l2.cpu_side       896298                       # Packet count per connected master and slave (bytes)
system.tol2bus.pkt_count::total                896298                       # Packet count per connected master and slave (bytes)
system.tol2bus.pkt_size_system.cpu0.dcache.mem_side::system.l2.cpu_side     19331776                       # Cumulative packet size per connected master and slave (bytes)
system.tol2bus.pkt_size::total               19331776                       # Cumulative packet size per connected master and slave (bytes)
system.tol2bus.snoops                          180422                       # Total snoops (count)
system.tol2bus.snoopTraffic                     26880                       # Total snoop traffic (bytes)
system.tol2bus.snoop_fanout::samples           479188                       # Request fanout histogram
system.tol2bus.snoop_fanout::mean            0.001580                       # Request fanout histogram
system.tol2bus.snoop_fanout::stdev           0.039715                       # Request fanout histogram
system.tol2bus.snoop_fanout::underflows             0      0.00%      0.00% # Request fanout histogram
system.tol2bus.snoop_fanout::0                 478431     99.84%     99.84% # Request fanout histogram
system.tol2bus.snoop_fanout::1                    757      0.16%    100.00% # Request fanout histogram
system.tol2bus.snoop_fanout::2                      0      0.00%    100.00% # Request fanout histogram
system.tol2bus.snoop_fanout::3                      0      0.00%    100.00% # Request fanout histogram
system.tol2bus.snoop_fanout::4                      0      0.00%    100.00% # Request fanout histogram
system.tol2bus.snoop_fanout::5                      0      0.00%    100.00% # Request fanout histogram
system.tol2bus.snoop_fanout::6                      0      0.00%    100.00% # Request fanout histogram
system.tol2bus.snoop_fanout::7                      0      0.00%    100.00% # Request fanout histogram
system.tol2bus.snoop_fanout::8                      0      0.00%    100.00% # Request fanout histogram
system.tol2bus.snoop_fanout::9                      0      0.00%    100.00% # Request fanout histogram
system.tol2bus.snoop_fanout::10                     0      0.00%    100.00% # Request fanout histogram
system.tol2bus.snoop_fanout::11                     0      0.00%    100.00% # Request fanout histogram
system.tol2bus.snoop_fanout::12                     0      0.00%    100.00% # Request fanout histogram
system.tol2bus.snoop_fanout::13                     0      0.00%    100.00% # Request fanout histogram
system.tol2bus.snoop_fanout::14                     0      0.00%    100.00% # Request fanout histogram
system.tol2bus.snoop_fanout::15                     0      0.00%    100.00% # Request fanout histogram
system.tol2bus.snoop_fanout::16                     0      0.00%    100.00% # Request fanout histogram
system.tol2bus.snoop_fanout::overflows              0      0.00%    100.00% # Request fanout histogram
system.tol2bus.snoop_fanout::min_value              0                       # Request fanout histogram
system.tol2bus.snoop_fanout::max_value              1                       # Request fanout histogram
system.tol2bus.snoop_fanout::total             479188                       # Request fanout histogram
system.tol2bus.reqLayer0.occupancy          302059000                       # Layer occupancy (ticks)
system.tol2bus.reqLayer0.utilization              2.0                       # Layer utilization (%)
system.tol2bus.respLayer1.occupancy         448149000                       # Layer occupancy (ticks)
system.tol2bus.respLayer1.utilization             2.9                       # Layer utilization (%)

---------- End Simulation Statistics   ----------
