
---------- Begin Simulation Statistics ----------
sim_seconds                                  0.015267                       # Number of seconds simulated
sim_ticks                                 15267344125                       # Number of ticks simulated
final_tick                               3282478986875                       # Number of ticks from beginning of simulation (restored from checkpoints and never reset)
sim_freq                                 1000000000000                       # Frequency of simulated ticks
host_inst_rate                               93798565                       # Simulator instruction rate (inst/s)
host_op_rate                                173916433                       # Simulator op (including micro ops) rate (op/s)
host_tick_rate                              254622762                       # Simulator tick rate (ticks/s)
host_mem_usage                                2332528                       # Number of bytes of host memory used
host_seconds                                    59.96                       # Real time elapsed on the host
sim_insts                                  5624220468                       # Number of instructions simulated
sim_ops                                   10428139422                       # Number of ops (including micro ops) simulated
system.voltage_domain.voltage                       1                       # Voltage in Volts
system.clk_domain.clock                          1000                       # Clock period in ticks
system.mem_ctrls.pwrStateResidencyTicks::UNDEFINED  15267344125                       # Cumulative time (in ticks) in various power states
system.mem_ctrls.bytes_read::cpu0.inst            128                       # Number of bytes read from this memory
system.mem_ctrls.bytes_read::cpu0.data       10447360                       # Number of bytes read from this memory
system.mem_ctrls.bytes_read::total           10447488                       # Number of bytes read from this memory
system.mem_ctrls.bytes_inst_read::cpu0.inst          128                       # Number of instructions bytes read from this memory
system.mem_ctrls.bytes_inst_read::total           128                       # Number of instructions bytes read from this memory
system.mem_ctrls.bytes_written::writebacks        51776                       # Number of bytes written to this memory
system.mem_ctrls.bytes_written::total           51776                       # Number of bytes written to this memory
system.mem_ctrls.num_reads::cpu0.inst               2                       # Number of read requests responded to by this memory
system.mem_ctrls.num_reads::cpu0.data          163240                       # Number of read requests responded to by this memory
system.mem_ctrls.num_reads::total              163242                       # Number of read requests responded to by this memory
system.mem_ctrls.num_writes::writebacks           809                       # Number of write requests responded to by this memory
system.mem_ctrls.num_writes::total                809                       # Number of write requests responded to by this memory
system.mem_ctrls.bw_read::cpu0.inst              8384                       # Total read bandwidth from this memory (bytes/s)
system.mem_ctrls.bw_read::cpu0.data         684294525                       # Total read bandwidth from this memory (bytes/s)
system.mem_ctrls.bw_read::total             684302909                       # Total read bandwidth from this memory (bytes/s)
system.mem_ctrls.bw_inst_read::cpu0.inst         8384                       # Instruction read bandwidth from this memory (bytes/s)
system.mem_ctrls.bw_inst_read::total             8384                       # Instruction read bandwidth from this memory (bytes/s)
system.mem_ctrls.bw_write::writebacks         3391291                       # Write bandwidth from this memory (bytes/s)
system.mem_ctrls.bw_write::total              3391291                       # Write bandwidth from this memory (bytes/s)
system.mem_ctrls.bw_total::writebacks         3391291                       # Total bandwidth to/from this memory (bytes/s)
system.mem_ctrls.bw_total::cpu0.inst             8384                       # Total bandwidth to/from this memory (bytes/s)
system.mem_ctrls.bw_total::cpu0.data        684294525                       # Total bandwidth to/from this memory (bytes/s)
system.mem_ctrls.bw_total::total            687694200                       # Total bandwidth to/from this memory (bytes/s)
system.mem_ctrls.readReqs                      163243                       # Number of read requests accepted
system.mem_ctrls.writeReqs                        809                       # Number of write requests accepted
system.mem_ctrls.readBursts                    163243                       # Number of DRAM read bursts, including those serviced by the write queue
system.mem_ctrls.writeBursts                      809                       # Number of DRAM write bursts, including those merged in the write queue
system.mem_ctrls.bytesReadDRAM               10440448                       # Total number of bytes read from DRAM
system.mem_ctrls.bytesReadWrQ                    7104                       # Total number of bytes read from write queue
system.mem_ctrls.bytesWritten                   52608                       # Total number of bytes written to DRAM
system.mem_ctrls.bytesReadSys                10447552                       # Total read bytes from the system interface side
system.mem_ctrls.bytesWrittenSys                51776                       # Total written bytes from the system interface side
system.mem_ctrls.servicedByWrQ                    111                       # Number of DRAM read bursts serviced by the write queue
system.mem_ctrls.mergedWrBursts                     0                       # Number of DRAM write bursts merged with an existing one
system.mem_ctrls.neitherReadNorWriteReqs            0                       # Number of requests that are neither read nor write
system.mem_ctrls.perBankRdBursts::0              9920                       # Per bank write bursts
system.mem_ctrls.perBankRdBursts::1              9934                       # Per bank write bursts
system.mem_ctrls.perBankRdBursts::2              9864                       # Per bank write bursts
system.mem_ctrls.perBankRdBursts::3             11056                       # Per bank write bursts
system.mem_ctrls.perBankRdBursts::4             11045                       # Per bank write bursts
system.mem_ctrls.perBankRdBursts::5             10796                       # Per bank write bursts
system.mem_ctrls.perBankRdBursts::6             10724                       # Per bank write bursts
system.mem_ctrls.perBankRdBursts::7              9968                       # Per bank write bursts
system.mem_ctrls.perBankRdBursts::8              9930                       # Per bank write bursts
system.mem_ctrls.perBankRdBursts::9              9841                       # Per bank write bursts
system.mem_ctrls.perBankRdBursts::10             9884                       # Per bank write bursts
system.mem_ctrls.perBankRdBursts::11             9875                       # Per bank write bursts
system.mem_ctrls.perBankRdBursts::12            10009                       # Per bank write bursts
system.mem_ctrls.perBankRdBursts::13            10128                       # Per bank write bursts
system.mem_ctrls.perBankRdBursts::14            10094                       # Per bank write bursts
system.mem_ctrls.perBankRdBursts::15            10064                       # Per bank write bursts
system.mem_ctrls.perBankWrBursts::0                20                       # Per bank write bursts
system.mem_ctrls.perBankWrBursts::1                54                       # Per bank write bursts
system.mem_ctrls.perBankWrBursts::2               121                       # Per bank write bursts
system.mem_ctrls.perBankWrBursts::3               234                       # Per bank write bursts
system.mem_ctrls.perBankWrBursts::4               139                       # Per bank write bursts
system.mem_ctrls.perBankWrBursts::5               115                       # Per bank write bursts
system.mem_ctrls.perBankWrBursts::6                47                       # Per bank write bursts
system.mem_ctrls.perBankWrBursts::7                 0                       # Per bank write bursts
system.mem_ctrls.perBankWrBursts::8                 0                       # Per bank write bursts
system.mem_ctrls.perBankWrBursts::9                 0                       # Per bank write bursts
system.mem_ctrls.perBankWrBursts::10               55                       # Per bank write bursts
system.mem_ctrls.perBankWrBursts::11                0                       # Per bank write bursts
system.mem_ctrls.perBankWrBursts::12                4                       # Per bank write bursts
system.mem_ctrls.perBankWrBursts::13               27                       # Per bank write bursts
system.mem_ctrls.perBankWrBursts::14                1                       # Per bank write bursts
system.mem_ctrls.perBankWrBursts::15                5                       # Per bank write bursts
system.mem_ctrls.numRdRetry                         0                       # Number of times read queue was full causing retry
system.mem_ctrls.numWrRetry                         0                       # Number of times write queue was full causing retry
system.mem_ctrls.totGap                   15267345000                       # Total gap between requests
system.mem_ctrls.readPktSize::0                     0                       # Read request sizes (log2)
system.mem_ctrls.readPktSize::1                     0                       # Read request sizes (log2)
system.mem_ctrls.readPktSize::2                     0                       # Read request sizes (log2)
system.mem_ctrls.readPktSize::3                     0                       # Read request sizes (log2)
system.mem_ctrls.readPktSize::4                     0                       # Read request sizes (log2)
system.mem_ctrls.readPktSize::5                     0                       # Read request sizes (log2)
system.mem_ctrls.readPktSize::6                163243                       # Read request sizes (log2)
system.mem_ctrls.writePktSize::0                    0                       # Write request sizes (log2)
system.mem_ctrls.writePktSize::1                    0                       # Write request sizes (log2)
system.mem_ctrls.writePktSize::2                    0                       # Write request sizes (log2)
system.mem_ctrls.writePktSize::3                    0                       # Write request sizes (log2)
system.mem_ctrls.writePktSize::4                    0                       # Write request sizes (log2)
system.mem_ctrls.writePktSize::5                    0                       # Write request sizes (log2)
system.mem_ctrls.writePktSize::6                  809                       # Write request sizes (log2)
system.mem_ctrls.rdQLenPdf::0                  126347                       # What read queue length does an incoming req see
system.mem_ctrls.rdQLenPdf::1                   34201                       # What read queue length does an incoming req see
system.mem_ctrls.rdQLenPdf::2                    2499                       # What read queue length does an incoming req see
system.mem_ctrls.rdQLenPdf::3                      85                       # What read queue length does an incoming req see
system.mem_ctrls.rdQLenPdf::4                       0                       # What read queue length does an incoming req see
system.mem_ctrls.rdQLenPdf::5                       0                       # What read queue length does an incoming req see
system.mem_ctrls.rdQLenPdf::6                       0                       # What read queue length does an incoming req see
system.mem_ctrls.rdQLenPdf::7                       0                       # What read queue length does an incoming req see
system.mem_ctrls.rdQLenPdf::8                       0                       # What read queue length does an incoming req see
system.mem_ctrls.rdQLenPdf::9                       0                       # What read queue length does an incoming req see
system.mem_ctrls.rdQLenPdf::10                      0                       # What read queue length does an incoming req see
system.mem_ctrls.rdQLenPdf::11                      0                       # What read queue length does an incoming req see
system.mem_ctrls.rdQLenPdf::12                      0                       # What read queue length does an incoming req see
system.mem_ctrls.rdQLenPdf::13                      0                       # What read queue length does an incoming req see
system.mem_ctrls.rdQLenPdf::14                      0                       # What read queue length does an incoming req see
system.mem_ctrls.rdQLenPdf::15                      0                       # What read queue length does an incoming req see
system.mem_ctrls.rdQLenPdf::16                      0                       # What read queue length does an incoming req see
system.mem_ctrls.rdQLenPdf::17                      0                       # What read queue length does an incoming req see
system.mem_ctrls.rdQLenPdf::18                      0                       # What read queue length does an incoming req see
system.mem_ctrls.rdQLenPdf::19                      0                       # What read queue length does an incoming req see
system.mem_ctrls.rdQLenPdf::20                      0                       # What read queue length does an incoming req see
system.mem_ctrls.rdQLenPdf::21                      0                       # What read queue length does an incoming req see
system.mem_ctrls.rdQLenPdf::22                      0                       # What read queue length does an incoming req see
system.mem_ctrls.rdQLenPdf::23                      0                       # What read queue length does an incoming req see
system.mem_ctrls.rdQLenPdf::24                      0                       # What read queue length does an incoming req see
system.mem_ctrls.rdQLenPdf::25                      0                       # What read queue length does an incoming req see
system.mem_ctrls.rdQLenPdf::26                      0                       # What read queue length does an incoming req see
system.mem_ctrls.rdQLenPdf::27                      0                       # What read queue length does an incoming req see
system.mem_ctrls.rdQLenPdf::28                      0                       # What read queue length does an incoming req see
system.mem_ctrls.rdQLenPdf::29                      0                       # What read queue length does an incoming req see
system.mem_ctrls.rdQLenPdf::30                      0                       # What read queue length does an incoming req see
system.mem_ctrls.rdQLenPdf::31                      0                       # What read queue length does an incoming req see
system.mem_ctrls.wrQLenPdf::0                       0                       # What write queue length does an incoming req see
system.mem_ctrls.wrQLenPdf::1                       0                       # What write queue length does an incoming req see
system.mem_ctrls.wrQLenPdf::2                       0                       # What write queue length does an incoming req see
system.mem_ctrls.wrQLenPdf::3                       0                       # What write queue length does an incoming req see
system.mem_ctrls.wrQLenPdf::4                       0                       # What write queue length does an incoming req see
system.mem_ctrls.wrQLenPdf::5                       0                       # What write queue length does an incoming req see
system.mem_ctrls.wrQLenPdf::6                       0                       # What write queue length does an incoming req see
system.mem_ctrls.wrQLenPdf::7                       0                       # What write queue length does an incoming req see
system.mem_ctrls.wrQLenPdf::8                       0                       # What write queue length does an incoming req see
system.mem_ctrls.wrQLenPdf::9                       0                       # What write queue length does an incoming req see
system.mem_ctrls.wrQLenPdf::10                      0                       # What write queue length does an incoming req see
system.mem_ctrls.wrQLenPdf::11                      0                       # What write queue length does an incoming req see
system.mem_ctrls.wrQLenPdf::12                      0                       # What write queue length does an incoming req see
system.mem_ctrls.wrQLenPdf::13                      0                       # What write queue length does an incoming req see
system.mem_ctrls.wrQLenPdf::14                      0                       # What write queue length does an incoming req see
system.mem_ctrls.wrQLenPdf::15                      3                       # What write queue length does an incoming req see
system.mem_ctrls.wrQLenPdf::16                      3                       # What write queue length does an incoming req see
system.mem_ctrls.wrQLenPdf::17                     50                       # What write queue length does an incoming req see
system.mem_ctrls.wrQLenPdf::18                     50                       # What write queue length does an incoming req see
system.mem_ctrls.wrQLenPdf::19                     50                       # What write queue length does an incoming req see
system.mem_ctrls.wrQLenPdf::20                     50                       # What write queue length does an incoming req see
system.mem_ctrls.wrQLenPdf::21                     50                       # What write queue length does an incoming req see
system.mem_ctrls.wrQLenPdf::22                     50                       # What write queue length does an incoming req see
system.mem_ctrls.wrQLenPdf::23                     50                       # What write queue length does an incoming req see
system.mem_ctrls.wrQLenPdf::24                     50                       # What write queue length does an incoming req see
system.mem_ctrls.wrQLenPdf::25                     50                       # What write queue length does an incoming req see
system.mem_ctrls.wrQLenPdf::26                     50                       # What write queue length does an incoming req see
system.mem_ctrls.wrQLenPdf::27                     50                       # What write queue length does an incoming req see
system.mem_ctrls.wrQLenPdf::28                     50                       # What write queue length does an incoming req see
system.mem_ctrls.wrQLenPdf::29                     50                       # What write queue length does an incoming req see
system.mem_ctrls.wrQLenPdf::30                     50                       # What write queue length does an incoming req see
system.mem_ctrls.wrQLenPdf::31                     51                       # What write queue length does an incoming req see
system.mem_ctrls.wrQLenPdf::32                     52                       # What write queue length does an incoming req see
system.mem_ctrls.wrQLenPdf::33                      0                       # What write queue length does an incoming req see
system.mem_ctrls.wrQLenPdf::34                      0                       # What write queue length does an incoming req see
system.mem_ctrls.wrQLenPdf::35                      0                       # What write queue length does an incoming req see
system.mem_ctrls.wrQLenPdf::36                      0                       # What write queue length does an incoming req see
system.mem_ctrls.wrQLenPdf::37                      0                       # What write queue length does an incoming req see
system.mem_ctrls.wrQLenPdf::38                      0                       # What write queue length does an incoming req see
system.mem_ctrls.wrQLenPdf::39                      0                       # What write queue length does an incoming req see
system.mem_ctrls.wrQLenPdf::40                      0                       # What write queue length does an incoming req see
system.mem_ctrls.wrQLenPdf::41                      0                       # What write queue length does an incoming req see
system.mem_ctrls.wrQLenPdf::42                      0                       # What write queue length does an incoming req see
system.mem_ctrls.wrQLenPdf::43                      0                       # What write queue length does an incoming req see
system.mem_ctrls.wrQLenPdf::44                      0                       # What write queue length does an incoming req see
system.mem_ctrls.wrQLenPdf::45                      0                       # What write queue length does an incoming req see
system.mem_ctrls.wrQLenPdf::46                      0                       # What write queue length does an incoming req see
system.mem_ctrls.wrQLenPdf::47                      0                       # What write queue length does an incoming req see
system.mem_ctrls.wrQLenPdf::48                      0                       # What write queue length does an incoming req see
system.mem_ctrls.wrQLenPdf::49                      0                       # What write queue length does an incoming req see
system.mem_ctrls.wrQLenPdf::50                      0                       # What write queue length does an incoming req see
system.mem_ctrls.wrQLenPdf::51                      0                       # What write queue length does an incoming req see
system.mem_ctrls.wrQLenPdf::52                      0                       # What write queue length does an incoming req see
system.mem_ctrls.wrQLenPdf::53                      0                       # What write queue length does an incoming req see
system.mem_ctrls.wrQLenPdf::54                      0                       # What write queue length does an incoming req see
system.mem_ctrls.wrQLenPdf::55                      0                       # What write queue length does an incoming req see
system.mem_ctrls.wrQLenPdf::56                      0                       # What write queue length does an incoming req see
system.mem_ctrls.wrQLenPdf::57                      0                       # What write queue length does an incoming req see
system.mem_ctrls.wrQLenPdf::58                      0                       # What write queue length does an incoming req see
system.mem_ctrls.wrQLenPdf::59                      0                       # What write queue length does an incoming req see
system.mem_ctrls.wrQLenPdf::60                      0                       # What write queue length does an incoming req see
system.mem_ctrls.wrQLenPdf::61                      0                       # What write queue length does an incoming req see
system.mem_ctrls.wrQLenPdf::62                      0                       # What write queue length does an incoming req see
system.mem_ctrls.wrQLenPdf::63                      0                       # What write queue length does an incoming req see
system.mem_ctrls.bytesPerActivate::samples        93405                       # Bytes accessed per row activation
system.mem_ctrls.bytesPerActivate::mean    112.317413                       # Bytes accessed per row activation
system.mem_ctrls.bytesPerActivate::gmean    97.737962                       # Bytes accessed per row activation
system.mem_ctrls.bytesPerActivate::stdev    67.430485                       # Bytes accessed per row activation
system.mem_ctrls.bytesPerActivate::0-127        50191     53.73%     53.73% # Bytes accessed per row activation
system.mem_ctrls.bytesPerActivate::128-255        36590     39.17%     92.91% # Bytes accessed per row activation
system.mem_ctrls.bytesPerActivate::256-383         5879      6.29%     99.20% # Bytes accessed per row activation
system.mem_ctrls.bytesPerActivate::384-511          645      0.69%     99.89% # Bytes accessed per row activation
system.mem_ctrls.bytesPerActivate::512-639           70      0.07%     99.97% # Bytes accessed per row activation
system.mem_ctrls.bytesPerActivate::640-767           14      0.01%     99.98% # Bytes accessed per row activation
system.mem_ctrls.bytesPerActivate::768-895            8      0.01%     99.99% # Bytes accessed per row activation
system.mem_ctrls.bytesPerActivate::896-1023            1      0.00%     99.99% # Bytes accessed per row activation
system.mem_ctrls.bytesPerActivate::1024-1151            7      0.01%    100.00% # Bytes accessed per row activation
system.mem_ctrls.bytesPerActivate::total        93405                       # Bytes accessed per row activation
system.mem_ctrls.rdPerTurnAround::samples           51                       # Reads before turning the bus around for writes
system.mem_ctrls.rdPerTurnAround::mean    3241.509804                       # Reads before turning the bus around for writes
system.mem_ctrls.rdPerTurnAround::gmean   3177.023343                       # Reads before turning the bus around for writes
system.mem_ctrls.rdPerTurnAround::stdev    623.151197                       # Reads before turning the bus around for writes
system.mem_ctrls.rdPerTurnAround::1792-2047            3      5.88%      5.88% # Reads before turning the bus around for writes
system.mem_ctrls.rdPerTurnAround::2048-2303            2      3.92%      9.80% # Reads before turning the bus around for writes
system.mem_ctrls.rdPerTurnAround::2304-2559            2      3.92%     13.73% # Reads before turning the bus around for writes
system.mem_ctrls.rdPerTurnAround::2560-2815            6     11.76%     25.49% # Reads before turning the bus around for writes
system.mem_ctrls.rdPerTurnAround::2816-3071            7     13.73%     39.22% # Reads before turning the bus around for writes
system.mem_ctrls.rdPerTurnAround::3072-3327            5      9.80%     49.02% # Reads before turning the bus around for writes
system.mem_ctrls.rdPerTurnAround::3328-3583            9     17.65%     66.67% # Reads before turning the bus around for writes
system.mem_ctrls.rdPerTurnAround::3584-3839            7     13.73%     80.39% # Reads before turning the bus around for writes
system.mem_ctrls.rdPerTurnAround::3840-4095            7     13.73%     94.12% # Reads before turning the bus around for writes
system.mem_ctrls.rdPerTurnAround::4096-4351            3      5.88%    100.00% # Reads before turning the bus around for writes
system.mem_ctrls.rdPerTurnAround::total            51                       # Reads before turning the bus around for writes
system.mem_ctrls.wrPerTurnAround::samples           51                       # Writes before turning the bus around for reads
system.mem_ctrls.wrPerTurnAround::mean      16.117647                       # Writes before turning the bus around for reads
system.mem_ctrls.wrPerTurnAround::gmean     16.111240                       # Writes before turning the bus around for reads
system.mem_ctrls.wrPerTurnAround::stdev      0.475271                       # Writes before turning the bus around for reads
system.mem_ctrls.wrPerTurnAround::16               48     94.12%     94.12% # Writes before turning the bus around for reads
system.mem_ctrls.wrPerTurnAround::18                3      5.88%    100.00% # Writes before turning the bus around for reads
system.mem_ctrls.wrPerTurnAround::total            51                       # Writes before turning the bus around for reads
system.mem_ctrls.totQLat                   4156161000                       # Total ticks spent queuing
system.mem_ctrls.totMemAccLat              7214886000                       # Total ticks spent from burst creation until serviced by the DRAM
system.mem_ctrls.totBusLat                  815660000                       # Total ticks spent in databus transfers
system.mem_ctrls.avgQLat                     25477.29                       # Average queueing delay per DRAM burst
system.mem_ctrls.avgBusLat                    5000.00                       # Average bus latency per DRAM burst
system.mem_ctrls.avgMemAccLat                44227.29                       # Average memory access latency per DRAM burst
system.mem_ctrls.avgRdBW                       683.84                       # Average DRAM read bandwidth in MiByte/s
system.mem_ctrls.avgWrBW                         3.45                       # Average achieved write bandwidth in MiByte/s
system.mem_ctrls.avgRdBWSys                    684.31                       # Average system read bandwidth in MiByte/s
system.mem_ctrls.avgWrBWSys                      3.39                       # Average system write bandwidth in MiByte/s
system.mem_ctrls.peakBW                      12800.00                       # Theoretical peak bandwidth in MiByte/s
system.mem_ctrls.busUtil                         5.37                       # Data bus utilization in percentage
system.mem_ctrls.busUtilRead                     5.34                       # Data bus utilization in percentage for reads
system.mem_ctrls.busUtilWrite                    0.03                       # Data bus utilization in percentage for writes
system.mem_ctrls.avgRdQLen                       1.27                       # Average read queue length when enqueuing
system.mem_ctrls.avgWrQLen                      25.38                       # Average write queue length when enqueuing
system.mem_ctrls.readRowHits                    69873                       # Number of row buffer hits during reads
system.mem_ctrls.writeRowHits                     665                       # Number of row buffer hits during writes
system.mem_ctrls.readRowHitRate                 42.83                       # Row buffer hit rate for reads
system.mem_ctrls.writeRowHitRate                82.20                       # Row buffer hit rate for writes
system.mem_ctrls.avgGap                      93064.06                       # Average gap between requests
system.mem_ctrls.pageHitRate                    43.03                       # Row buffer hit rate, read and write combined
system.mem_ctrls_0.actEnergy                339799740                       # Energy for activate commands per rank (pJ)
system.mem_ctrls_0.preEnergy                180585075                       # Energy for precharge commands per rank (pJ)
system.mem_ctrls_0.readEnergy               594811980                       # Energy for read commands per rank (pJ)
system.mem_ctrls_0.writeEnergy                3810600                       # Energy for write commands per rank (pJ)
system.mem_ctrls_0.refreshEnergy         1204694400.000000                       # Energy for refresh commands per rank (pJ)
system.mem_ctrls_0.actBackEnergy           1497876210                       # Energy for active background per rank (pJ)
system.mem_ctrls_0.preBackEnergy             24826560                       # Energy for precharge background per rank (pJ)
system.mem_ctrls_0.actPowerDownEnergy      5219936310                       # Energy for active power-down per rank (pJ)
system.mem_ctrls_0.prePowerDownEnergy       180728160                       # Energy for precharge power-down per rank (pJ)
system.mem_ctrls_0.selfRefreshEnergy                0                       # Energy for self refresh per rank (pJ)
system.mem_ctrls_0.totalEnergy             9247069035                       # Total energy per rank (pJ)
system.mem_ctrls_0.averagePower            605.676335                       # Core power per rank (mW)
system.mem_ctrls_0.totalIdleTime          11918363500                       # Total Idle time Per DRAM Rank
system.mem_ctrls_0.memoryStateTime::IDLE      9948000                       # Time in different power states
system.mem_ctrls_0.memoryStateTime::REF     509606000                       # Time in different power states
system.mem_ctrls_0.memoryStateTime::SREF            0                       # Time in different power states
system.mem_ctrls_0.memoryStateTime::PRE_PDN    470650000                       # Time in different power states
system.mem_ctrls_0.memoryStateTime::ACT    2829327000                       # Time in different power states
system.mem_ctrls_0.memoryStateTime::ACT_PDN  11447813125                       # Time in different power states
system.mem_ctrls_1.actEnergy                327190500                       # Energy for activate commands per rank (pJ)
system.mem_ctrls_1.preEnergy                173886900                       # Energy for precharge commands per rank (pJ)
system.mem_ctrls_1.readEnergy               569950500                       # Energy for read commands per rank (pJ)
system.mem_ctrls_1.writeEnergy                 480240                       # Energy for write commands per rank (pJ)
system.mem_ctrls_1.refreshEnergy         1205309040.000000                       # Energy for refresh commands per rank (pJ)
system.mem_ctrls_1.actBackEnergy           1444624530                       # Energy for active background per rank (pJ)
system.mem_ctrls_1.preBackEnergy             25012320                       # Energy for precharge background per rank (pJ)
system.mem_ctrls_1.actPowerDownEnergy      5268512280                       # Energy for active power-down per rank (pJ)
system.mem_ctrls_1.prePowerDownEnergy       184150080                       # Energy for precharge power-down per rank (pJ)
system.mem_ctrls_1.selfRefreshEnergy     758340.000000                       # Energy for self refresh per rank (pJ)
system.mem_ctrls_1.totalEnergy             9199874730                       # Total energy per rank (pJ)
system.mem_ctrls_1.averagePower            602.585142                       # Core power per rank (mW)
system.mem_ctrls_1.totalIdleTime          12033679750                       # Total Idle time Per DRAM Rank
system.mem_ctrls_1.memoryStateTime::IDLE     10236000                       # Time in different power states
system.mem_ctrls_1.memoryStateTime::REF     509866000                       # Time in different power states
system.mem_ctrls_1.memoryStateTime::SREF       858750                       # Time in different power states
system.mem_ctrls_1.memoryStateTime::PRE_PDN    479180000                       # Time in different power states
system.mem_ctrls_1.memoryStateTime::ACT    2713562375                       # Time in different power states
system.mem_ctrls_1.memoryStateTime::ACT_PDN  11553641000                       # Time in different power states
system.pwrStateResidencyTicks::UNDEFINED  15267344125                       # Cumulative time (in ticks) in various power states
system.cpu0.branchPred.lookups                2592309                       # Number of BP lookups
system.cpu0.branchPred.condPredicted          2592309                       # Number of conditional branches predicted
system.cpu0.branchPred.condIncorrect           124689                       # Number of conditional branches incorrect
system.cpu0.branchPred.BTBLookups             2085411                       # Number of BTB lookups
system.cpu0.branchPred.BTBHits                      0                       # Number of BTB hits
system.cpu0.branchPred.BTBCorrect                   0                       # Number of correct BTB predictions (this stat may not work properly.
system.cpu0.branchPred.BTBHitPct             0.000000                       # BTB Hit Percentage
system.cpu0.branchPred.usedRAS                  91112                       # Number of times the RAS was used to get a target.
system.cpu0.branchPred.RASInCorrect             13886                       # Number of incorrect RAS predictions.
system.cpu0.branchPred.indirectLookups        2085411                       # Number of indirect predictor lookups.
system.cpu0.branchPred.indirectHits           1067483                       # Number of indirect target hits.
system.cpu0.branchPred.indirectMisses         1017928                       # Number of indirect misses.
system.cpu0.branchPredindirectMispredicted        45925                       # Number of mispredicted indirect branches.
system.cpu_voltage_domain.voltage                   1                       # Voltage in Volts
system.cpu_clk_domain.clock                       500                       # Clock period in ticks
system.cpu0.dtb.walker.pwrStateResidencyTicks::UNDEFINED  15267344125                       # Cumulative time (in ticks) in various power states
system.cpu0.dtb.rdAccesses                    1263547                       # TLB accesses on read requests
system.cpu0.dtb.wrAccesses                     114355                       # TLB accesses on write requests
system.cpu0.dtb.rdMisses                       242223                       # TLB misses on read requests
system.cpu0.dtb.wrMisses                         2068                       # TLB misses on write requests
system.cpu0.apic_clk_domain.clock                8000                       # Clock period in ticks
system.cpu0.interrupts.pwrStateResidencyTicks::UNDEFINED  15267344125                       # Cumulative time (in ticks) in various power states
system.cpu0.itb.walker.pwrStateResidencyTicks::UNDEFINED  15267344125                       # Cumulative time (in ticks) in various power states
system.cpu0.itb.rdAccesses                          0                       # TLB accesses on read requests
system.cpu0.itb.wrAccesses                    2095515                       # TLB accesses on write requests
system.cpu0.itb.rdMisses                            0                       # TLB misses on read requests
system.cpu0.itb.wrMisses                        11373                       # TLB misses on write requests
system.cpu0.workload.numSyscalls                    1                       # Number of system calls
system.cpu0.pwrStateResidencyTicks::ON    15267344125                       # Cumulative time (in ticks) in various power states
system.cpu0.numCycles                        30534688                       # number of cpu cycles simulated
system.cpu0.numWorkItemsStarted                     0                       # number of work items this cpu started
system.cpu0.numWorkItemsCompleted                   0                       # number of work items this cpu completed
system.cpu0.fetch.icacheStallCycles           2150792                       # Number of cycles fetch is stalled on an Icache miss
system.cpu0.fetch.Insts                       7772875                       # Number of instructions fetch has processed
system.cpu0.fetch.Branches                    2592309                       # Number of branches that fetch encountered
system.cpu0.fetch.predictedBranches           1158595                       # Number of branches that fetch has predicted taken
system.cpu0.fetch.Cycles                     28087182                       # Number of cycles fetch has run and was not squashing or blocked
system.cpu0.fetch.SquashCycles                 256604                       # Number of cycles fetch has spent squashing
system.cpu0.fetch.TlbCycles                      3517                       # Number of cycles fetch has spent waiting for tlb
system.cpu0.fetch.MiscStallCycles                2613                       # Number of cycles fetch has spent waiting on interrupts, or bad addresses, or out of MSHRs
system.cpu0.fetch.PendingTrapStallCycles        92843                       # Number of stall cycles due to pending traps
system.cpu0.fetch.CacheLines                  2084142                       # Number of cache lines fetched
system.cpu0.fetch.IcacheSquashes                18827                       # Number of outstanding Icache misses that were squashed
system.cpu0.fetch.ItlbSquashes                     13                       # Number of outstanding ITLB misses that were squashed
system.cpu0.fetch.rateDist::samples          30465249                       # Number of instructions fetched each cycle (Total)
system.cpu0.fetch.rateDist::mean             0.514337                       # Number of instructions fetched each cycle (Total)
system.cpu0.fetch.rateDist::stdev            1.787138                       # Number of instructions fetched each cycle (Total)
system.cpu0.fetch.rateDist::underflows              0      0.00%      0.00% # Number of instructions fetched each cycle (Total)
system.cpu0.fetch.rateDist::0                27507617     90.29%     90.29% # Number of instructions fetched each cycle (Total)
system.cpu0.fetch.rateDist::1                   41974      0.14%     90.43% # Number of instructions fetched each cycle (Total)
system.cpu0.fetch.rateDist::2                  987878      3.24%     93.67% # Number of instructions fetched each cycle (Total)
system.cpu0.fetch.rateDist::3                   54241      0.18%     93.85% # Number of instructions fetched each cycle (Total)
system.cpu0.fetch.rateDist::4                  206343      0.68%     94.53% # Number of instructions fetched each cycle (Total)
system.cpu0.fetch.rateDist::5                  119515      0.39%     94.92% # Number of instructions fetched each cycle (Total)
system.cpu0.fetch.rateDist::6                  135051      0.44%     95.36% # Number of instructions fetched each cycle (Total)
system.cpu0.fetch.rateDist::7                   45331      0.15%     95.51% # Number of instructions fetched each cycle (Total)
system.cpu0.fetch.rateDist::8                 1367299      4.49%    100.00% # Number of instructions fetched each cycle (Total)
system.cpu0.fetch.rateDist::overflows               0      0.00%    100.00% # Number of instructions fetched each cycle (Total)
system.cpu0.fetch.rateDist::min_value               0                       # Number of instructions fetched each cycle (Total)
system.cpu0.fetch.rateDist::max_value               8                       # Number of instructions fetched each cycle (Total)
system.cpu0.fetch.rateDist::total            30465249                       # Number of instructions fetched each cycle (Total)
system.cpu0.fetch.branchRate                 0.084897                       # Number of branch fetches per cycle
system.cpu0.fetch.rate                       0.254559                       # Number of inst fetches per cycle
system.cpu0.decode.IdleCycles                 1147722                       # Number of cycles decode is idle
system.cpu0.decode.BlockedCycles             27178730                       # Number of cycles decode is blocked
system.cpu0.decode.RunCycles                  1540527                       # Number of cycles decode is running
system.cpu0.decode.UnblockCycles               469968                       # Number of cycles decode is unblocking
system.cpu0.decode.SquashCycles                128302                       # Number of cycles decode is squashing
system.cpu0.decode.DecodedInsts              13088100                       # Number of instructions handled by decode
system.cpu0.rename.SquashCycles                128302                       # Number of cycles rename is squashing
system.cpu0.rename.IdleCycles                 1314871                       # Number of cycles rename is idle
system.cpu0.rename.BlockCycles               25477141                       # Number of cycles rename is blocking
system.cpu0.rename.serializeStallCycles         18944                       # count of cycles rename stalled for serializing inst
system.cpu0.rename.RunCycles                  1738888                       # Number of cycles rename is running
system.cpu0.rename.UnblockCycles              1787103                       # Number of cycles rename is unblocking
system.cpu0.rename.RenamedInsts              12515616                       # Number of instructions processed by rename
system.cpu0.rename.ROBFullEvents                92945                       # Number of times rename has blocked due to ROB full
system.cpu0.rename.IQFullEvents               1441266                       # Number of times rename has blocked due to IQ full
system.cpu0.rename.LQFullEvents                267571                       # Number of times rename has blocked due to LQ full
system.cpu0.rename.SQFullEvents                  1563                       # Number of times rename has blocked due to SQ full
system.cpu0.rename.RenamedOperands           14875602                       # Number of destination operands rename has renamed
system.cpu0.rename.RenameLookups             34466107                       # Number of register rename lookups that rename has made
system.cpu0.rename.int_rename_lookups        16662797                       # Number of integer rename lookups
system.cpu0.rename.fp_rename_lookups            76567                       # Number of floating rename lookups
system.cpu0.rename.CommittedMaps              5179157                       # Number of HB maps that are committed
system.cpu0.rename.UndoneMaps                 9696446                       # Number of HB maps that are undone due to squashing
system.cpu0.rename.serializingInsts               464                       # count of serializing insts renamed
system.cpu0.rename.tempSerializingInsts           577                       # count of temporary serializing insts renamed
system.cpu0.rename.skidInsts                  2875191                       # count of insts added to the skid buffer
system.cpu0.memDep0.insertedLoads             2172867                       # Number of loads inserted to the mem dependence unit.
system.cpu0.memDep0.insertedStores             169009                       # Number of stores inserted to the mem dependence unit.
system.cpu0.memDep0.conflictingLoads             7588                       # Number of conflicting loads.
system.cpu0.memDep0.conflictingStores            9397                       # Number of conflicting stores.
system.cpu0.iq.iqInstsAdded                  11762471                       # Number of instructions added to the IQ (excludes non-spec)
system.cpu0.iq.iqNonSpecInstsAdded               9604                       # Number of non-speculative instructions added to the IQ
system.cpu0.iq.iqInstsIssued                  8526444                       # Number of instructions issued
system.cpu0.iq.iqSquashedInstsIssued            13014                       # Number of squashed instructions issued
system.cpu0.iq.iqSquashedInstsExamined        7453979                       # Number of squashed instructions iterated over during squash; mainly for profiling
system.cpu0.iq.iqSquashedOperandsExamined     14921966                       # Number of squashed operands that are examined and possibly removed from graph
system.cpu0.iq.iqSquashedNonSpecRemoved          9603                       # Number of squashed non-spec instructions that were removed
system.cpu0.iq.issued_per_cycle::samples     30465249                       # Number of insts issued each cycle
system.cpu0.iq.issued_per_cycle::mean        0.279874                       # Number of insts issued each cycle
system.cpu0.iq.issued_per_cycle::stdev       0.977043                       # Number of insts issued each cycle
system.cpu0.iq.issued_per_cycle::underflows            0      0.00%      0.00% # Number of insts issued each cycle
system.cpu0.iq.issued_per_cycle::0           27163561     89.16%     89.16% # Number of insts issued each cycle
system.cpu0.iq.issued_per_cycle::1            1215446      3.99%     93.15% # Number of insts issued each cycle
system.cpu0.iq.issued_per_cycle::2             684307      2.25%     95.40% # Number of insts issued each cycle
system.cpu0.iq.issued_per_cycle::3             474230      1.56%     96.95% # Number of insts issued each cycle
system.cpu0.iq.issued_per_cycle::4             501873      1.65%     98.60% # Number of insts issued each cycle
system.cpu0.iq.issued_per_cycle::5             182029      0.60%     99.20% # Number of insts issued each cycle
system.cpu0.iq.issued_per_cycle::6             144766      0.48%     99.67% # Number of insts issued each cycle
system.cpu0.iq.issued_per_cycle::7              58835      0.19%     99.87% # Number of insts issued each cycle
system.cpu0.iq.issued_per_cycle::8              40202      0.13%    100.00% # Number of insts issued each cycle
system.cpu0.iq.issued_per_cycle::overflows            0      0.00%    100.00% # Number of insts issued each cycle
system.cpu0.iq.issued_per_cycle::min_value            0                       # Number of insts issued each cycle
system.cpu0.iq.issued_per_cycle::max_value            8                       # Number of insts issued each cycle
system.cpu0.iq.issued_per_cycle::total       30465249                       # Number of insts issued each cycle
system.cpu0.iq.fu_full::No_OpClass                  0      0.00%      0.00% # attempts to use FU when none available
system.cpu0.iq.fu_full::IntAlu                  24219     72.40%     72.40% # attempts to use FU when none available
system.cpu0.iq.fu_full::IntMult                     0      0.00%     72.40% # attempts to use FU when none available
system.cpu0.iq.fu_full::IntDiv                      0      0.00%     72.40% # attempts to use FU when none available
system.cpu0.iq.fu_full::FloatAdd                 2327      6.96%     79.36% # attempts to use FU when none available
system.cpu0.iq.fu_full::FloatCmp                    0      0.00%     79.36% # attempts to use FU when none available
system.cpu0.iq.fu_full::FloatCvt                    0      0.00%     79.36% # attempts to use FU when none available
system.cpu0.iq.fu_full::FloatMult                   0      0.00%     79.36% # attempts to use FU when none available
system.cpu0.iq.fu_full::FloatMultAcc                0      0.00%     79.36% # attempts to use FU when none available
system.cpu0.iq.fu_full::FloatDiv                    0      0.00%     79.36% # attempts to use FU when none available
system.cpu0.iq.fu_full::FloatMisc                   0      0.00%     79.36% # attempts to use FU when none available
system.cpu0.iq.fu_full::FloatSqrt                   0      0.00%     79.36% # attempts to use FU when none available
system.cpu0.iq.fu_full::SimdAdd                     0      0.00%     79.36% # attempts to use FU when none available
system.cpu0.iq.fu_full::SimdAddAcc                  0      0.00%     79.36% # attempts to use FU when none available
system.cpu0.iq.fu_full::SimdAlu                     0      0.00%     79.36% # attempts to use FU when none available
system.cpu0.iq.fu_full::SimdCmp                     0      0.00%     79.36% # attempts to use FU when none available
system.cpu0.iq.fu_full::SimdCvt                     0      0.00%     79.36% # attempts to use FU when none available
system.cpu0.iq.fu_full::SimdMisc                    0      0.00%     79.36% # attempts to use FU when none available
system.cpu0.iq.fu_full::SimdMult                    0      0.00%     79.36% # attempts to use FU when none available
system.cpu0.iq.fu_full::SimdMultAcc                 0      0.00%     79.36% # attempts to use FU when none available
system.cpu0.iq.fu_full::SimdShift                   0      0.00%     79.36% # attempts to use FU when none available
system.cpu0.iq.fu_full::SimdShiftAcc                0      0.00%     79.36% # attempts to use FU when none available
system.cpu0.iq.fu_full::SimdSqrt                    0      0.00%     79.36% # attempts to use FU when none available
system.cpu0.iq.fu_full::SimdFloatAdd                0      0.00%     79.36% # attempts to use FU when none available
system.cpu0.iq.fu_full::SimdFloatAlu                0      0.00%     79.36% # attempts to use FU when none available
system.cpu0.iq.fu_full::SimdFloatCmp                0      0.00%     79.36% # attempts to use FU when none available
system.cpu0.iq.fu_full::SimdFloatCvt                0      0.00%     79.36% # attempts to use FU when none available
system.cpu0.iq.fu_full::SimdFloatDiv                0      0.00%     79.36% # attempts to use FU when none available
system.cpu0.iq.fu_full::SimdFloatMisc               0      0.00%     79.36% # attempts to use FU when none available
system.cpu0.iq.fu_full::SimdFloatMult               0      0.00%     79.36% # attempts to use FU when none available
system.cpu0.iq.fu_full::SimdFloatMultAcc            0      0.00%     79.36% # attempts to use FU when none available
system.cpu0.iq.fu_full::SimdFloatSqrt               0      0.00%     79.36% # attempts to use FU when none available
system.cpu0.iq.fu_full::MemRead                  6068     18.14%     97.50% # attempts to use FU when none available
system.cpu0.iq.fu_full::MemWrite                  566      1.69%     99.19% # attempts to use FU when none available
system.cpu0.iq.fu_full::FloatMemRead              205      0.61%     99.80% # attempts to use FU when none available
system.cpu0.iq.fu_full::FloatMemWrite              66      0.20%    100.00% # attempts to use FU when none available
system.cpu0.iq.fu_full::IprAccess                   0      0.00%    100.00% # attempts to use FU when none available
system.cpu0.iq.fu_full::InstPrefetch                0      0.00%    100.00% # attempts to use FU when none available
system.cpu0.iq.FU_type_0::No_OpClass            37361      0.44%      0.44% # Type of FU issued
system.cpu0.iq.FU_type_0::IntAlu              6976755     81.82%     82.26% # Type of FU issued
system.cpu0.iq.FU_type_0::IntMult                2882      0.03%     82.30% # Type of FU issued
system.cpu0.iq.FU_type_0::IntDiv                21511      0.25%     82.55% # Type of FU issued
system.cpu0.iq.FU_type_0::FloatAdd              29125      0.34%     82.89% # Type of FU issued
system.cpu0.iq.FU_type_0::FloatCmp                  0      0.00%     82.89% # Type of FU issued
system.cpu0.iq.FU_type_0::FloatCvt                  0      0.00%     82.89% # Type of FU issued
system.cpu0.iq.FU_type_0::FloatMult                 0      0.00%     82.89% # Type of FU issued
system.cpu0.iq.FU_type_0::FloatMultAcc              0      0.00%     82.89% # Type of FU issued
system.cpu0.iq.FU_type_0::FloatDiv                  0      0.00%     82.89% # Type of FU issued
system.cpu0.iq.FU_type_0::FloatMisc                 0      0.00%     82.89% # Type of FU issued
system.cpu0.iq.FU_type_0::FloatSqrt                 0      0.00%     82.89% # Type of FU issued
system.cpu0.iq.FU_type_0::SimdAdd                   0      0.00%     82.89% # Type of FU issued
system.cpu0.iq.FU_type_0::SimdAddAcc                0      0.00%     82.89% # Type of FU issued
system.cpu0.iq.FU_type_0::SimdAlu                   0      0.00%     82.89% # Type of FU issued
system.cpu0.iq.FU_type_0::SimdCmp                   0      0.00%     82.89% # Type of FU issued
system.cpu0.iq.FU_type_0::SimdCvt                   0      0.00%     82.89% # Type of FU issued
system.cpu0.iq.FU_type_0::SimdMisc                  0      0.00%     82.89% # Type of FU issued
system.cpu0.iq.FU_type_0::SimdMult                  0      0.00%     82.89% # Type of FU issued
system.cpu0.iq.FU_type_0::SimdMultAcc               0      0.00%     82.89% # Type of FU issued
system.cpu0.iq.FU_type_0::SimdShift                 0      0.00%     82.89% # Type of FU issued
system.cpu0.iq.FU_type_0::SimdShiftAcc              0      0.00%     82.89% # Type of FU issued
system.cpu0.iq.FU_type_0::SimdSqrt                  0      0.00%     82.89% # Type of FU issued
system.cpu0.iq.FU_type_0::SimdFloatAdd              0      0.00%     82.89% # Type of FU issued
system.cpu0.iq.FU_type_0::SimdFloatAlu              0      0.00%     82.89% # Type of FU issued
system.cpu0.iq.FU_type_0::SimdFloatCmp              0      0.00%     82.89% # Type of FU issued
system.cpu0.iq.FU_type_0::SimdFloatCvt              0      0.00%     82.89% # Type of FU issued
system.cpu0.iq.FU_type_0::SimdFloatDiv              0      0.00%     82.89% # Type of FU issued
system.cpu0.iq.FU_type_0::SimdFloatMisc             0      0.00%     82.89% # Type of FU issued
system.cpu0.iq.FU_type_0::SimdFloatMult             0      0.00%     82.89% # Type of FU issued
system.cpu0.iq.FU_type_0::SimdFloatMultAcc            0      0.00%     82.89% # Type of FU issued
system.cpu0.iq.FU_type_0::SimdFloatSqrt             0      0.00%     82.89% # Type of FU issued
system.cpu0.iq.FU_type_0::MemRead             1329905     15.60%     98.49% # Type of FU issued
system.cpu0.iq.FU_type_0::MemWrite             123395      1.45%     99.94% # Type of FU issued
system.cpu0.iq.FU_type_0::FloatMemRead           5281      0.06%    100.00% # Type of FU issued
system.cpu0.iq.FU_type_0::FloatMemWrite           229      0.00%    100.00% # Type of FU issued
system.cpu0.iq.FU_type_0::IprAccess                 0      0.00%    100.00% # Type of FU issued
system.cpu0.iq.FU_type_0::InstPrefetch              0      0.00%    100.00% # Type of FU issued
system.cpu0.iq.FU_type_0::total               8526444                       # Type of FU issued
system.cpu0.iq.rate                          0.279238                       # Inst issue rate
system.cpu0.iq.fu_busy_cnt                      33451                       # FU busy when requested
system.cpu0.iq.fu_busy_rate                  0.003923                       # FU busy rate (busy events/executed inst)
system.cpu0.iq.int_inst_queue_reads          47492268                       # Number of integer instruction queue reads
system.cpu0.iq.int_inst_queue_writes         19163616                       # Number of integer instruction queue writes
system.cpu0.iq.int_inst_queue_wakeup_accesses      8116652                       # Number of integer instruction queue wakeup accesses
system.cpu0.iq.fp_inst_queue_reads              72334                       # Number of floating instruction queue reads
system.cpu0.iq.fp_inst_queue_writes             62448                       # Number of floating instruction queue writes
system.cpu0.iq.fp_inst_queue_wakeup_accesses        31900                       # Number of floating instruction queue wakeup accesses
system.cpu0.iq.vec_inst_queue_reads                 0                       # Number of vector instruction queue reads
system.cpu0.iq.vec_inst_queue_writes                0                       # Number of vector instruction queue writes
system.cpu0.iq.vec_inst_queue_wakeup_accesses            0                       # Number of vector instruction queue wakeup accesses
system.cpu0.iq.int_alu_accesses               8485286                       # Number of integer alu accesses
system.cpu0.iq.fp_alu_accesses                  37248                       # Number of floating point alu accesses
system.cpu0.iq.vec_alu_accesses                     0                       # Number of vector alu accesses
system.cpu0.iew.lsq.thread0.forwLoads           10117                       # Number of loads that had data forwarded from stores
system.cpu0.iew.lsq.thread0.invAddrLoads            0                       # Number of loads ignored due to an invalid address
system.cpu0.iew.lsq.thread0.squashedLoads      1386627                       # Number of loads squashed
system.cpu0.iew.lsq.thread0.ignoredResponses          392                       # Number of memory responses ignored because the instruction is squashed
system.cpu0.iew.lsq.thread0.memOrderViolation           17                       # Number of memory ordering violations
system.cpu0.iew.lsq.thread0.squashedStores       106567                       # Number of stores squashed
system.cpu0.iew.lsq.thread0.invAddrSwpfs            0                       # Number of software prefetches ignored due to an invalid address
system.cpu0.iew.lsq.thread0.blockedLoads            0                       # Number of blocked loads due to partial load-store forwarding
system.cpu0.iew.lsq.thread0.rescheduledLoads           87                       # Number of loads that were rescheduled
system.cpu0.iew.lsq.thread0.cacheBlocked         2192                       # Number of times an access to memory failed due to the cache being blocked
system.cpu0.iew.iewIdleCycles                       0                       # Number of cycles IEW is idle
system.cpu0.iew.iewSquashCycles                128302                       # Number of cycles IEW is squashing
system.cpu0.iew.iewBlockCycles               22826289                       # Number of cycles IEW is blocking
system.cpu0.iew.iewUnblockCycles               337655                       # Number of cycles IEW is unblocking
system.cpu0.iew.iewDispatchedInsts           11772075                       # Number of instructions dispatched to IQ
system.cpu0.iew.iewDispSquashedInsts             8208                       # Number of squashed instructions skipped by dispatch
system.cpu0.iew.iewDispLoadInsts              2172867                       # Number of dispatched load instructions
system.cpu0.iew.iewDispStoreInsts              169009                       # Number of dispatched store instructions
system.cpu0.iew.iewDispNonSpecInsts              3491                       # Number of dispatched non-speculative instructions
system.cpu0.iew.iewIQFullEvents                 28033                       # Number of times the IQ has become full, causing a stall
system.cpu0.iew.iewLSQFullEvents                72060                       # Number of times the LSQ has become full, causing a stall
system.cpu0.iew.memOrderViolationEvents            17                       # Number of memory order violations
system.cpu0.iew.predictedTakenIncorrect         63882                       # Number of branches that were predicted taken incorrectly
system.cpu0.iew.predictedNotTakenIncorrect        80645                       # Number of branches that were predicted not taken incorrectly
system.cpu0.iew.branchMispredicts              144527                       # Number of branch mispredicts detected at execute
system.cpu0.iew.iewExecutedInsts              8333394                       # Number of executed instructions
system.cpu0.iew.iewExecLoadInsts              1262975                       # Number of load instructions executed
system.cpu0.iew.iewExecSquashedInsts           193050                       # Number of squashed instructions skipped in execute
system.cpu0.iew.exec_swp                            0                       # number of swp insts executed
system.cpu0.iew.exec_nop                            0                       # number of nop insts executed
system.cpu0.iew.exec_refs                     1377315                       # number of memory reference insts executed
system.cpu0.iew.exec_branches                  982574                       # Number of branches executed
system.cpu0.iew.exec_stores                    114340                       # Number of stores executed
system.cpu0.iew.exec_rate                    0.272916                       # Inst execution rate
system.cpu0.iew.wb_sent                       8185877                       # cumulative count of insts sent to commit
system.cpu0.iew.wb_count                      8148552                       # cumulative count of insts written-back
system.cpu0.iew.wb_producers                  6054884                       # num instructions producing a value
system.cpu0.iew.wb_consumers                  9636512                       # num instructions consuming a value
system.cpu0.iew.wb_rate                      0.266862                       # insts written-back per cycle
system.cpu0.iew.wb_fanout                    0.628327                       # average fanout of values written-back
system.cpu0.commit.commitSquashedInsts        7455040                       # The number of squashed insts skipped by commit
system.cpu0.commit.commitNonSpecStalls              1                       # The number of times commit has been forced to stall to communicate backwards
system.cpu0.commit.branchMispredicts           128296                       # The number of times a branch was mispredicted
system.cpu0.commit.committed_per_cycle::samples     29389875                       # Number of insts commited each cycle
system.cpu0.commit.committed_per_cycle::mean     0.146925                       # Number of insts commited each cycle
system.cpu0.commit.committed_per_cycle::stdev     0.725459                       # Number of insts commited each cycle
system.cpu0.commit.committed_per_cycle::underflows            0      0.00%      0.00% # Number of insts commited each cycle
system.cpu0.commit.committed_per_cycle::0     27602898     93.92%     93.92% # Number of insts commited each cycle
system.cpu0.commit.committed_per_cycle::1       798517      2.72%     96.64% # Number of insts commited each cycle
system.cpu0.commit.committed_per_cycle::2       199243      0.68%     97.31% # Number of insts commited each cycle
system.cpu0.commit.committed_per_cycle::3       513640      1.75%     99.06% # Number of insts commited each cycle
system.cpu0.commit.committed_per_cycle::4       101803      0.35%     99.41% # Number of insts commited each cycle
system.cpu0.commit.committed_per_cycle::5        61038      0.21%     99.62% # Number of insts commited each cycle
system.cpu0.commit.committed_per_cycle::6        12818      0.04%     99.66% # Number of insts commited each cycle
system.cpu0.commit.committed_per_cycle::7         8480      0.03%     99.69% # Number of insts commited each cycle
system.cpu0.commit.committed_per_cycle::8        91438      0.31%    100.00% # Number of insts commited each cycle
system.cpu0.commit.committed_per_cycle::overflows            0      0.00%    100.00% # Number of insts commited each cycle
system.cpu0.commit.committed_per_cycle::min_value            0                       # Number of insts commited each cycle
system.cpu0.commit.committed_per_cycle::max_value            8                       # Number of insts commited each cycle
system.cpu0.commit.committed_per_cycle::total     29389875                       # Number of insts commited each cycle
system.cpu0.commit.committedInsts             2161535                       # Number of instructions committed
system.cpu0.commit.committedOps               4318097                       # Number of ops (including micro ops) committed
system.cpu0.commit.swp_count                        0                       # Number of s/w prefetches committed
system.cpu0.commit.refs                        848682                       # Number of memory references committed
system.cpu0.commit.loads                       786240                       # Number of loads committed
system.cpu0.commit.membars                          0                       # Number of memory barriers committed
system.cpu0.commit.branches                    751241                       # Number of branches committed
system.cpu0.commit.vec_insts                        0                       # Number of committed Vector instructions.
system.cpu0.commit.fp_insts                     24874                       # Number of committed floating point instructions.
system.cpu0.commit.int_insts                  4292925                       # Number of committed integer instructions.
system.cpu0.commit.function_calls               11004                       # Number of function calls committed.
system.cpu0.commit.op_class_0::No_OpClass         7493      0.17%      0.17% # Class of committed instruction
system.cpu0.commit.op_class_0::IntAlu         3422114     79.25%     79.42% # Class of committed instruction
system.cpu0.commit.op_class_0::IntMult            440      0.01%     79.43% # Class of committed instruction
system.cpu0.commit.op_class_0::IntDiv           18092      0.42%     79.85% # Class of committed instruction
system.cpu0.commit.op_class_0::FloatAdd         21276      0.49%     80.35% # Class of committed instruction
system.cpu0.commit.op_class_0::FloatCmp             0      0.00%     80.35% # Class of committed instruction
system.cpu0.commit.op_class_0::FloatCvt             0      0.00%     80.35% # Class of committed instruction
system.cpu0.commit.op_class_0::FloatMult            0      0.00%     80.35% # Class of committed instruction
system.cpu0.commit.op_class_0::FloatMultAcc            0      0.00%     80.35% # Class of committed instruction
system.cpu0.commit.op_class_0::FloatDiv             0      0.00%     80.35% # Class of committed instruction
system.cpu0.commit.op_class_0::FloatMisc            0      0.00%     80.35% # Class of committed instruction
system.cpu0.commit.op_class_0::FloatSqrt            0      0.00%     80.35% # Class of committed instruction
system.cpu0.commit.op_class_0::SimdAdd              0      0.00%     80.35% # Class of committed instruction
system.cpu0.commit.op_class_0::SimdAddAcc            0      0.00%     80.35% # Class of committed instruction
system.cpu0.commit.op_class_0::SimdAlu              0      0.00%     80.35% # Class of committed instruction
system.cpu0.commit.op_class_0::SimdCmp              0      0.00%     80.35% # Class of committed instruction
system.cpu0.commit.op_class_0::SimdCvt              0      0.00%     80.35% # Class of committed instruction
system.cpu0.commit.op_class_0::SimdMisc             0      0.00%     80.35% # Class of committed instruction
system.cpu0.commit.op_class_0::SimdMult             0      0.00%     80.35% # Class of committed instruction
system.cpu0.commit.op_class_0::SimdMultAcc            0      0.00%     80.35% # Class of committed instruction
system.cpu0.commit.op_class_0::SimdShift            0      0.00%     80.35% # Class of committed instruction
system.cpu0.commit.op_class_0::SimdShiftAcc            0      0.00%     80.35% # Class of committed instruction
system.cpu0.commit.op_class_0::SimdSqrt             0      0.00%     80.35% # Class of committed instruction
system.cpu0.commit.op_class_0::SimdFloatAdd            0      0.00%     80.35% # Class of committed instruction
system.cpu0.commit.op_class_0::SimdFloatAlu            0      0.00%     80.35% # Class of committed instruction
system.cpu0.commit.op_class_0::SimdFloatCmp            0      0.00%     80.35% # Class of committed instruction
system.cpu0.commit.op_class_0::SimdFloatCvt            0      0.00%     80.35% # Class of committed instruction
system.cpu0.commit.op_class_0::SimdFloatDiv            0      0.00%     80.35% # Class of committed instruction
system.cpu0.commit.op_class_0::SimdFloatMisc            0      0.00%     80.35% # Class of committed instruction
system.cpu0.commit.op_class_0::SimdFloatMult            0      0.00%     80.35% # Class of committed instruction
system.cpu0.commit.op_class_0::SimdFloatMultAcc            0      0.00%     80.35% # Class of committed instruction
system.cpu0.commit.op_class_0::SimdFloatSqrt            0      0.00%     80.35% # Class of committed instruction
system.cpu0.commit.op_class_0::MemRead         782642     18.12%     98.47% # Class of committed instruction
system.cpu0.commit.op_class_0::MemWrite         62442      1.45%     99.92% # Class of committed instruction
system.cpu0.commit.op_class_0::FloatMemRead         3598      0.08%    100.00% # Class of committed instruction
system.cpu0.commit.op_class_0::FloatMemWrite            0      0.00%    100.00% # Class of committed instruction
system.cpu0.commit.op_class_0::IprAccess            0      0.00%    100.00% # Class of committed instruction
system.cpu0.commit.op_class_0::InstPrefetch            0      0.00%    100.00% # Class of committed instruction
system.cpu0.commit.op_class_0::total          4318097                       # Class of committed instruction
system.cpu0.commit.bw_lim_events                91438                       # number cycles where commit BW limit reached
system.cpu0.rob.rob_reads                    41071574                       # The number of ROB reads
system.cpu0.rob.rob_writes                   24625441                       # The number of ROB writes
system.cpu0.timesIdled                            673                       # Number of times that the entire CPU went into an idle state and unscheduled itself
system.cpu0.idleCycles                          69439                       # Total number of cycles that the CPU has spent unscheduled due to idling
system.cpu0.committedInsts                    2161535                       # Number of Instructions Simulated
system.cpu0.committedOps                      4318097                       # Number of Ops (including micro ops) Simulated
system.cpu0.cpi                             14.126391                       # CPI: Cycles Per Instruction
system.cpu0.cpi_total                       14.126391                       # CPI: Total CPI of All Threads
system.cpu0.ipc                              0.070789                       # IPC: Instructions Per Cycle
system.cpu0.ipc_total                        0.070789                       # IPC: Total IPC of All Threads
system.cpu0.int_regfile_reads                 8609962                       # number of integer regfile reads
system.cpu0.int_regfile_writes                7069426                       # number of integer regfile writes
system.cpu0.fp_regfile_reads                    56420                       # number of floating regfile reads
system.cpu0.fp_regfile_writes                   28111                       # number of floating regfile writes
system.cpu0.cc_regfile_reads                  5112775                       # number of cc regfile reads
system.cpu0.cc_regfile_writes                 2265006                       # number of cc regfile writes
system.cpu0.misc_regfile_reads                4294802                       # number of misc regfile reads
system.cpu0.dcache.tags.pwrStateResidencyTicks::UNDEFINED  15267344125                       # Cumulative time (in ticks) in various power states
system.cpu0.dcache.tags.replacements           391562                       # number of replacements
system.cpu0.dcache.tags.tagsinuse                1024                       # Cycle average of tags in use
system.cpu0.dcache.tags.total_refs             628952                       # Total number of references to valid blocks.
system.cpu0.dcache.tags.sampled_refs           391562                       # Sample count of references to valid blocks.
system.cpu0.dcache.tags.avg_refs             1.606264                       # Average number of references to valid blocks.
system.cpu0.dcache.tags.warmup_cycle                0                       # Cycle when the warmup percentage was hit.
system.cpu0.dcache.tags.occ_blocks::cpu0.data         1024                       # Average occupied blocks per requestor
system.cpu0.dcache.tags.occ_percent::cpu0.data            1                       # Average percentage of cache occupancy
system.cpu0.dcache.tags.occ_percent::total            1                       # Average percentage of cache occupancy
system.cpu0.dcache.tags.occ_task_id_blocks::1024         1024                       # Occupied blocks per task id
system.cpu0.dcache.tags.age_task_id_blocks_1024::0          172                       # Occupied blocks per task id
system.cpu0.dcache.tags.age_task_id_blocks_1024::1          795                       # Occupied blocks per task id
system.cpu0.dcache.tags.age_task_id_blocks_1024::2           57                       # Occupied blocks per task id
system.cpu0.dcache.tags.occ_task_id_percent::1024            1                       # Percentage of cache occupancy per task id
system.cpu0.dcache.tags.tag_accesses          5619110                       # Number of tag accesses
system.cpu0.dcache.tags.data_accesses         5619110                       # Number of data accesses
system.cpu0.dcache.pwrStateResidencyTicks::UNDEFINED  15267344125                       # Cumulative time (in ticks) in various power states
system.cpu0.dcache.ReadReq_hits::cpu0.data       561822                       # number of ReadReq hits
system.cpu0.dcache.ReadReq_hits::total         561822                       # number of ReadReq hits
system.cpu0.dcache.WriteReq_hits::cpu0.data        60787                       # number of WriteReq hits
system.cpu0.dcache.WriteReq_hits::total         60787                       # number of WriteReq hits
system.cpu0.dcache.demand_hits::cpu0.data       622609                       # number of demand (read+write) hits
system.cpu0.dcache.demand_hits::total          622609                       # number of demand (read+write) hits
system.cpu0.dcache.overall_hits::cpu0.data       622609                       # number of overall hits
system.cpu0.dcache.overall_hits::total         622609                       # number of overall hits
system.cpu0.dcache.ReadReq_misses::cpu0.data       682623                       # number of ReadReq misses
system.cpu0.dcache.ReadReq_misses::total       682623                       # number of ReadReq misses
system.cpu0.dcache.WriteReq_misses::cpu0.data         1655                       # number of WriteReq misses
system.cpu0.dcache.WriteReq_misses::total         1655                       # number of WriteReq misses
system.cpu0.dcache.demand_misses::cpu0.data       684278                       # number of demand (read+write) misses
system.cpu0.dcache.demand_misses::total        684278                       # number of demand (read+write) misses
system.cpu0.dcache.overall_misses::cpu0.data       684278                       # number of overall misses
system.cpu0.dcache.overall_misses::total       684278                       # number of overall misses
system.cpu0.dcache.ReadReq_miss_latency::cpu0.data  34002035000                       # number of ReadReq miss cycles
system.cpu0.dcache.ReadReq_miss_latency::total  34002035000                       # number of ReadReq miss cycles
system.cpu0.dcache.WriteReq_miss_latency::cpu0.data     76182500                       # number of WriteReq miss cycles
system.cpu0.dcache.WriteReq_miss_latency::total     76182500                       # number of WriteReq miss cycles
system.cpu0.dcache.demand_miss_latency::cpu0.data  34078217500                       # number of demand (read+write) miss cycles
system.cpu0.dcache.demand_miss_latency::total  34078217500                       # number of demand (read+write) miss cycles
system.cpu0.dcache.overall_miss_latency::cpu0.data  34078217500                       # number of overall miss cycles
system.cpu0.dcache.overall_miss_latency::total  34078217500                       # number of overall miss cycles
system.cpu0.dcache.ReadReq_accesses::cpu0.data      1244445                       # number of ReadReq accesses(hits+misses)
system.cpu0.dcache.ReadReq_accesses::total      1244445                       # number of ReadReq accesses(hits+misses)
system.cpu0.dcache.WriteReq_accesses::cpu0.data        62442                       # number of WriteReq accesses(hits+misses)
system.cpu0.dcache.WriteReq_accesses::total        62442                       # number of WriteReq accesses(hits+misses)
system.cpu0.dcache.demand_accesses::cpu0.data      1306887                       # number of demand (read+write) accesses
system.cpu0.dcache.demand_accesses::total      1306887                       # number of demand (read+write) accesses
system.cpu0.dcache.overall_accesses::cpu0.data      1306887                       # number of overall (read+write) accesses
system.cpu0.dcache.overall_accesses::total      1306887                       # number of overall (read+write) accesses
system.cpu0.dcache.ReadReq_miss_rate::cpu0.data     0.548536                       # miss rate for ReadReq accesses
system.cpu0.dcache.ReadReq_miss_rate::total     0.548536                       # miss rate for ReadReq accesses
system.cpu0.dcache.WriteReq_miss_rate::cpu0.data     0.026505                       # miss rate for WriteReq accesses
system.cpu0.dcache.WriteReq_miss_rate::total     0.026505                       # miss rate for WriteReq accesses
system.cpu0.dcache.demand_miss_rate::cpu0.data     0.523594                       # miss rate for demand accesses
[...]
system.l2.ReadExReq_miss_rate::cpu0.data     0.363026                       # miss rate for ReadExReq accesses
system.l2.ReadExReq_miss_rate::total         0.363026                       # miss rate for ReadExReq accesses
system.l2.ReadCleanReq_miss_rate::cpu0.inst            1                       # miss rate for ReadCleanReq accesses
system.l2.ReadCleanReq_miss_rate::total             1                       # miss rate for ReadCleanReq accesses
system.l2.ReadSharedReq_miss_rate::cpu0.data     0.417124                       # miss rate for ReadSharedReq accesses
system.l2.ReadSharedReq_miss_rate::total     0.417124                       # miss rate for ReadSharedReq accesses
system.l2.demand_miss_rate::cpu0.inst               1                       # miss rate for demand accesses
system.l2.demand_miss_rate::cpu0.data        0.416898                       # miss rate for demand accesses
system.l2.demand_miss_rate::total            0.416901                       # miss rate for demand accesses
system.l2.overall_miss_rate::cpu0.inst              1                       # miss rate for overall accesses
system.l2.overall_miss_rate::cpu0.data       0.416898                       # miss rate for overall accesses
system.l2.overall_miss_rate::total           0.416901                       # miss rate for overall accesses
system.l2.ReadExReq_avg_miss_latency::cpu0.data 99696.638655                       # average ReadExReq miss latency
system.l2.ReadExReq_avg_miss_latency::total 99696.638655                       # average ReadExReq miss latency
system.l2.ReadCleanReq_avg_miss_latency::cpu0.inst       102000                       # average ReadCleanReq miss latency
system.l2.ReadCleanReq_avg_miss_latency::total       102000                       # average ReadCleanReq miss latency
system.l2.ReadSharedReq_avg_miss_latency::cpu0.data 95732.197533                       # average ReadSharedReq miss latency
system.l2.ReadSharedReq_avg_miss_latency::total 95732.197533                       # average ReadSharedReq miss latency
system.l2.demand_avg_miss_latency::cpu0.inst       102000                       # average overall miss latency
system.l2.demand_avg_miss_latency::cpu0.data 95746.647595                       # average overall miss latency
system.l2.demand_avg_miss_latency::total 95746.724209                       # average overall miss latency
system.l2.overall_avg_miss_latency::cpu0.inst       102000                       # average overall miss latency
system.l2.overall_avg_miss_latency::cpu0.data 95746.647595                       # average overall miss latency
system.l2.overall_avg_miss_latency::total 95746.724209                       # average overall miss latency
system.l2.blocked_cycles::no_mshrs                  0                       # number of cycles access was blocked
system.l2.blocked_cycles::no_targets                0                       # number of cycles access was blocked
system.l2.blocked::no_mshrs                         0                       # number of cycles access was blocked
system.l2.blocked::no_targets                       0                       # number of cycles access was blocked
system.l2.avg_blocked_cycles::no_mshrs            nan                       # average number of cycles each access was blocked
system.l2.avg_blocked_cycles::no_targets          nan                       # average number of cycles each access was blocked
system.l2.writebacks::writebacks                  809                       # number of writebacks
system.l2.writebacks::total                       809                       # number of writebacks
system.l2.ReadExReq_mshr_misses::cpu0.data          595                       # number of ReadExReq MSHR misses
system.l2.ReadExReq_mshr_misses::total            595                       # number of ReadExReq MSHR misses
system.l2.ReadCleanReq_mshr_misses::cpu0.inst            2                       # number of ReadCleanReq MSHR misses
system.l2.ReadCleanReq_mshr_misses::total            2                       # number of ReadCleanReq MSHR misses
system.l2.ReadSharedReq_mshr_misses::cpu0.data       162646                       # number of ReadSharedReq MSHR misses
system.l2.ReadSharedReq_mshr_misses::total       162646                       # number of ReadSharedReq MSHR misses
system.l2.demand_mshr_misses::cpu0.inst             2                       # number of demand (read+write) MSHR misses
system.l2.demand_mshr_misses::cpu0.data        163241                       # number of demand (read+write) MSHR misses
system.l2.demand_mshr_misses::total            163243                       # number of demand (read+write) MSHR misses
system.l2.overall_mshr_misses::cpu0.inst            2                       # number of overall MSHR misses
system.l2.overall_mshr_misses::cpu0.data       163241                       # number of overall MSHR misses
system.l2.overall_mshr_misses::total           163243                       # number of overall MSHR misses
system.l2.ReadExReq_mshr_miss_latency::cpu0.data     53369500                       # number of ReadExReq MSHR miss cycles
system.l2.ReadExReq_mshr_miss_latency::total     53369500                       # number of ReadExReq MSHR miss cycles
system.l2.ReadCleanReq_mshr_miss_latency::cpu0.inst       184000                       # number of ReadCleanReq MSHR miss cycles
system.l2.ReadCleanReq_mshr_miss_latency::total       184000                       # number of ReadCleanReq MSHR miss cycles
system.l2.ReadSharedReq_mshr_miss_latency::cpu0.data  13943989000                       # number of ReadSharedReq MSHR miss cycles
system.l2.ReadSharedReq_mshr_miss_latency::total  13943989000                       # number of ReadSharedReq MSHR miss cycles
system.l2.demand_mshr_miss_latency::cpu0.inst       184000                       # number of demand (read+write) MSHR miss cycles
system.l2.demand_mshr_miss_latency::cpu0.data  13997358500                       # number of demand (read+write) MSHR miss cycles
system.l2.demand_mshr_miss_latency::total  13997542500                       # number of demand (read+write) MSHR miss cycles
system.l2.overall_mshr_miss_latency::cpu0.inst       184000                       # number of overall MSHR miss cycles
system.l2.overall_mshr_miss_latency::cpu0.data  13997358500                       # number of overall MSHR miss cycles
system.l2.overall_mshr_miss_latency::total  13997542500                       # number of overall MSHR miss cycles
system.l2.ReadExReq_mshr_miss_rate::cpu0.data     0.363026                       # mshr miss rate for ReadExReq accesses
system.l2.ReadExReq_mshr_miss_rate::total     0.363026                       # mshr miss rate for ReadExReq accesses
system.l2.ReadCleanReq_mshr_miss_rate::cpu0.inst            1                       # mshr miss rate for ReadCleanReq accesses
system.l2.ReadCleanReq_mshr_miss_rate::total            1                       # mshr miss rate for ReadCleanReq accesses
system.l2.ReadSharedReq_mshr_miss_rate::cpu0.data     0.417124                       # mshr miss rate for ReadSharedReq accesses
system.l2.ReadSharedReq_mshr_miss_rate::total     0.417124                       # mshr miss rate for ReadSharedReq accesses
system.l2.demand_mshr_miss_rate::cpu0.inst            1                       # mshr miss rate for demand accesses
system.l2.demand_mshr_miss_rate::cpu0.data     0.416898                       # mshr miss rate for demand accesses
system.l2.demand_mshr_miss_rate::total       0.416901                       # mshr miss rate for demand accesses
system.l2.overall_mshr_miss_rate::cpu0.inst            1                       # mshr miss rate for overall accesses
system.l2.overall_mshr_miss_rate::cpu0.data     0.416898                       # mshr miss rate for overall accesses
system.l2.overall_mshr_miss_rate::total      0.416901                       # mshr miss rate for overall accesses
system.l2.ReadExReq_avg_mshr_miss_latency::cpu0.data 89696.638655                       # average ReadExReq mshr miss latency
system.l2.ReadExReq_avg_mshr_miss_latency::total 89696.638655                       # average ReadExReq mshr miss latency
system.l2.ReadCleanReq_avg_mshr_miss_latency::cpu0.inst        92000                       # average ReadCleanReq mshr miss latency
system.l2.ReadCleanReq_avg_mshr_miss_latency::total        92000                       # average ReadCleanReq mshr miss latency
system.l2.ReadSharedReq_avg_mshr_miss_latency::cpu0.data 85732.136050                       # average ReadSharedReq mshr miss latency
system.l2.ReadSharedReq_avg_mshr_miss_latency::total 85732.136050                       # average ReadSharedReq mshr miss latency
system.l2.demand_avg_mshr_miss_latency::cpu0.inst        92000                       # average overall mshr miss latency
system.l2.demand_avg_mshr_miss_latency::cpu0.data 85746.586336                       # average overall mshr miss latency
system.l2.demand_avg_mshr_miss_latency::total 85746.662950                       # average overall mshr miss latency
system.l2.overall_avg_mshr_miss_latency::cpu0.inst        92000                       # average overall mshr miss latency
system.l2.overall_avg_mshr_miss_latency::cpu0.data 85746.586336                       # average overall mshr miss latency
system.l2.overall_avg_mshr_miss_latency::total 85746.662950                       # average overall mshr miss latency
system.membus.snoop_filter.tot_requests        326488                       # Total number of requests made to the snoop filter.
system.membus.snoop_filter.hit_single_requests       163246                       # Number of requests hitting in the snoop filter with a single holder of the requested data.
system.membus.snoop_filter.hit_multi_requests            0                       # Number of requests hitting in the snoop filter with multiple (>1) holders of the requested data.
system.membus.snoop_filter.tot_snoops               0                       # Total number of snoops made to the snoop filter.
system.membus.snoop_filter.hit_single_snoops            0                       # Number of snoops hitting in the snoop filter with a single holder of the requested data.
system.membus.snoop_filter.hit_multi_snoops            0                       # Number of snoops hitting in the snoop filter with multiple (>1) holders of the requested data.
system.membus.pwrStateResidencyTicks::UNDEFINED  15267344125                       # Cumulative time (in ticks) in various power states
system.membus.trans_dist::ReadResp             162649                       # Transaction distribution
system.membus.trans_dist::WritebackDirty          809                       # Transaction distribution
system.membus.trans_dist::CleanEvict           162436                       # Transaction distribution
system.membus.trans_dist::ReadExReq               595                       # Transaction distribution
system.membus.trans_dist::ReadExResp              595                       # Transaction distribution
system.membus.trans_dist::ReadSharedReq        162648                       # Transaction distribution
system.membus.pkt_count_system.l2.mem_side::system.mem_ctrls.port       489732                       # Packet count per connected master and slave (bytes)
system.membus.pkt_count_system.l2.mem_side::total       489732                       # Packet count per connected master and slave (bytes)
system.membus.pkt_count::total                 489732                       # Packet count per connected master and slave (bytes)
system.membus.pkt_size_system.l2.mem_side::system.mem_ctrls.port     10499392                       # Cumulative packet size per connected master and slave (bytes)
system.membus.pkt_size_system.l2.mem_side::total     10499392                       # Cumulative packet size per connected master and slave (bytes)
system.membus.pkt_size::total                10499392                       # Cumulative packet size per connected master and slave (bytes)
system.membus.snoops                                0                       # Total snoops (count)
system.membus.snoopTraffic                          0                       # Total snoop traffic (bytes)
system.membus.snoop_fanout::samples            163243                       # Request fanout histogram
system.membus.snoop_fanout::mean                    0                       # Request fanout histogram
system.membus.snoop_fanout::stdev                   0                       # Request fanout histogram
system.membus.snoop_fanout::underflows              0      0.00%      0.00% # Request fanout histogram
system.membus.snoop_fanout::0                  163243    100.00%    100.00% # Request fanout histogram
system.membus.snoop_fanout::1                       0      0.00%    100.00% # Request fanout histogram
system.membus.snoop_fanout::overflows               0      0.00%    100.00% # Request fanout histogram
system.membus.snoop_fanout::min_value               0                       # Request fanout histogram
system.membus.snoop_fanout::max_value               0                       # Request fanout histogram
system.membus.snoop_fanout::total              163243                       # Request fanout histogram
system.membus.reqLayer8.occupancy           382907000                       # Layer occupancy (ticks)
system.membus.reqLayer8.utilization               2.5                       # Layer utilization (%)
system.membus.respLayer1.occupancy          888604750                       # Layer occupancy (ticks)
system.membus.respLayer1.utilization              5.8                       # Layer utilization (%)
system.tol2bus.snoop_filter.tot_requests       783127                       # Total number of requests made to the snoop filter.
system.tol2bus.snoop_filter.hit_single_requests       391563                       # Number of requests hitting in the snoop filter with a single holder of the requested data.
system.tol2bus.snoop_filter.hit_multi_requests          869                       # Number of requests hitting in the snoop filter with multiple (>1) holders of the requested data.
system.tol2bus.snoop_filter.tot_snoops              0                       # Total number of snoops made to the snoop filter.
system.tol2bus.snoop_filter.hit_single_snoops            0                       # Number of snoops hitting in the snoop filter with a single holder of the requested data.
system.tol2bus.snoop_filter.hit_multi_snoops            0                       # Number of snoops hitting in the snoop filter with multiple (>1) holders of the requested data.
system.tol2bus.pwrStateResidencyTicks::UNDEFINED  15267344125                       # Cumulative time (in ticks) in various power states
system.tol2bus.trans_dist::ReadResp            389925                       # Transaction distribution
system.tol2bus.trans_dist::WritebackDirty         5577                       # Transaction distribution
system.tol2bus.trans_dist::WritebackClean            2                       # Transaction distribution
system.tol2bus.trans_dist::CleanEvict          549230                       # Transaction distribution
system.tol2bus.trans_dist::ReadExReq             1639                       # Transaction distribution
system.tol2bus.trans_dist::ReadExResp            1639                       # Transaction distribution
system.tol2bus.trans_dist::ReadCleanReq             2                       # Transaction distribution
system.tol2bus.trans_dist::ReadSharedReq       389922                       # Transaction distribution
system.tol2bus.pkt_count_system.cpu0.icache.mem_side::system.l2.cpu_side            6                       # Packet count per connected master and slave (bytes)
system.tol2bus.pkt_count_system.cpu0.dcache.mem_side::system.l2.cpu_side      1174685                       # Packet count per connected master and slave (bytes)
system.tol2bus.pkt_count::total               1174691                       # Packet count per connected master and slave (bytes)
system.tol2bus.pkt_size_system.cpu0.icache.mem_side::system.l2.cpu_side          256                       # Cumulative packet size per connected master and slave (bytes)
system.tol2bus.pkt_size_system.cpu0.dcache.mem_side::system.l2.cpu_side     25365120                       # Cumulative packet size per connected master and slave (bytes)
system.tol2bus.pkt_size::total               25365376                       # Cumulative packet size per connected master and slave (bytes)
system.tol2bus.snoops                          163245                       # Total snoops (count)
system.tol2bus.snoopTraffic                     51776                       # Total snoop traffic (bytes)
system.tol2bus.snoop_fanout::samples           554808                       # Request fanout histogram
system.tol2bus.snoop_fanout::mean            0.001565                       # Request fanout histogram
system.tol2bus.snoop_fanout::stdev           0.039523                       # Request fanout histogram
system.tol2bus.snoop_fanout::underflows             0      0.00%      0.00% # Request fanout histogram
system.tol2bus.snoop_fanout::0                 553940     99.84%     99.84% # Request fanout histogram
system.tol2bus.snoop_fanout::1                    868      0.16%    100.00% # Request fanout histogram
system.tol2bus.snoop_fanout::2                      0      0.00%    100.00% # Request fanout histogram
system.tol2bus.snoop_fanout::3                      0      0.00%    100.00% # Request fanout histogram
system.tol2bus.snoop_fanout::4                      0      0.00%    100.00% # Request fanout histogram
system.tol2bus.snoop_fanout::5                      0      0.00%    100.00% # Request fanout histogram
system.tol2bus.snoop_fanout::6                      0      0.00%    100.00% # Request fanout histogram
system.tol2bus.snoop_fanout::7                      0      0.00%    100.00% # Request fanout histogram
system.tol2bus.snoop_fanout::8                      0      0.00%    100.00% # Request fanout histogram
system.tol2bus.snoop_fanout::9                      0      0.00%    100.00% # Request fanout histogram
system.tol2bus.snoop_fanout::10                     0      0.00%    100.00% # Request fanout histogram
system.tol2bus.snoop_fanout::11                     0      0.00%    100.00% # Request fanout histogram
system.tol2bus.snoop_fanout::12                     0      0.00%    100.00% # Request fanout histogram
system.tol2bus.snoop_fanout::13                     0      0.00%    100.00% # Request fanout histogram
system.tol2bus.snoop_fanout::14                     0      0.00%    100.00% # Request fanout histogram
system.tol2bus.snoop_fanout::15                     0      0.00%    100.00% # Request fanout histogram
system.tol2bus.snoop_fanout::16                     0      0.00%    100.00% # Request fanout histogram
system.tol2bus.snoop_fanout::overflows              0      0.00%    100.00% # Request fanout histogram
system.tol2bus.snoop_fanout::min_value              0                       # Request fanout histogram
system.tol2bus.snoop_fanout::max_value              1                       # Request fanout histogram
system.tol2bus.snoop_fanout::total             554808                       # Request fanout histogram
system.tol2bus.reqLayer0.occupancy          396333500                       # Layer occupancy (ticks)
system.tol2bus.reqLayer0.utilization              2.6                       # Layer utilization (%)
system.tol2bus.respLayer0.occupancy              3000                       # Layer occupancy (ticks)
system.tol2bus.respLayer0.utilization             0.0                       # Layer utilization (%)
system.tol2bus.respLayer1.occupancy         587343000                       # Layer occupancy (ticks)
system.tol2bus.respLayer1.utilization             3.8                       # Layer utilization (%)

---------- End Simulation Statistics   ----------
