
---------- Begin Simulation Statistics ----------
sim_seconds                                  0.015267                       # Number of seconds simulated
sim_ticks                                 15267344125                       # Number of ticks simulated
final_tick                               2305368962875                       # Number of ticks from beginning of simulation (restored from checkpoints and never reset)
sim_freq                                 1000000000000                       # Frequency of simulated ticks
host_inst_rate                               19108113                       # Simulator instruction rate (inst/s)
host_op_rate                                 34970573                       # Simulator op (including micro ops) rate (op/s)
host_tick_rate                               57321290                       # Simulator tick rate (ticks/s)
host_mem_usage                                2332528                       # Number of bytes of host memory used
host_seconds                                   266.35                       # Real time elapsed on the host
sim_insts                                  5089385149                       # Number of instructions simulated
sim_ops                                    9314301181                       # Number of ops (including micro ops) simulated
system.voltage_domain.voltage                       1                       # Voltage in Volts
system.clk_domain.clock                          1000                       # Clock period in ticks
system.mem_ctrls.pwrStateResidencyTicks::UNDEFINED  15267344125                       # Cumulative time (in ticks) in various power states
system.mem_ctrls.bytes_read::cpu0.inst             64                       # Number of bytes read from this memory
system.mem_ctrls.bytes_read::cpu0.data         957760                       # Number of bytes read from this memory
system.mem_ctrls.bytes_read::total             957824                       # Number of bytes read from this memory
system.mem_ctrls.bytes_inst_read::cpu0.inst           64                       # Number of instructions bytes read from this memory
system.mem_ctrls.bytes_inst_read::total            64                       # Number of instructions bytes read from this memory
system.mem_ctrls.bytes_written::writebacks       902848                       # Number of bytes written to this memory
system.mem_ctrls.bytes_written::total          902848                       # Number of bytes written to this memory
system.mem_ctrls.num_reads::cpu0.inst               1                       # Number of read requests responded to by this memory
system.mem_ctrls.num_reads::cpu0.data           14965                       # Number of read requests responded to by this memory
system.mem_ctrls.num_reads::total               14966                       # Number of read requests responded to by this memory
system.mem_ctrls.num_writes::writebacks         14107                       # Number of write requests responded to by this memory
system.mem_ctrls.num_writes::total              14107                       # Number of write requests responded to by this memory
system.mem_ctrls.bw_read::cpu0.inst              4192                       # Total read bandwidth from this memory (bytes/s)
system.mem_ctrls.bw_read::cpu0.data          62732587                       # Total read bandwidth from this memory (bytes/s)
system.mem_ctrls.bw_read::total              62736779                       # Total read bandwidth from this memory (bytes/s)
system.mem_ctrls.bw_inst_read::cpu0.inst         4192                       # Instruction read bandwidth from this memory (bytes/s)
system.mem_ctrls.bw_inst_read::total             4192                       # Instruction read bandwidth from this memory (bytes/s)
system.mem_ctrls.bw_write::writebacks        59135891                       # Write bandwidth from this memory (bytes/s)
system.mem_ctrls.bw_write::total             59135891                       # Write bandwidth from this memory (bytes/s)
system.mem_ctrls.bw_total::writebacks        59135891                       # Total bandwidth to/from this memory (bytes/s)
system.mem_ctrls.bw_total::cpu0.inst             4192                       # Total bandwidth to/from this memory (bytes/s)
system.mem_ctrls.bw_total::cpu0.data         62732587                       # Total bandwidth to/from this memory (bytes/s)
system.mem_ctrls.bw_total::total            121872671                       # Total bandwidth to/from this memory (bytes/s)
system.mem_ctrls.readReqs                       14966                       # Number of read requests accepted
system.mem_ctrls.writeReqs                      14107                       # Number of write requests accepted
system.mem_ctrls.readBursts                     14966                       # Number of DRAM read bursts, including those serviced by the write queue
system.mem_ctrls.writeBursts                    14107                       # Number of DRAM write bursts, including those merged in the write queue
system.mem_ctrls.bytesReadDRAM                 957696                       # Total number of bytes read from DRAM
system.mem_ctrls.bytesReadWrQ                     128                       # Total number of bytes read from write queue
system.mem_ctrls.bytesWritten                  902976                       # Total number of bytes written to DRAM
system.mem_ctrls.bytesReadSys                  957824                       # Total read bytes from the system interface side
system.mem_ctrls.bytesWrittenSys               902848                       # Total written bytes from the system interface side
system.mem_ctrls.servicedByWrQ                      2                       # Number of DRAM read bursts serviced by the write queue
system.mem_ctrls.mergedWrBursts                     0                       # Number of DRAM write bursts merged with an existing one
system.mem_ctrls.neitherReadNorWriteReqs            0                       # Number of requests that are neither read nor write
system.mem_ctrls.perBankRdBursts::0               936                       # Per bank write bursts
system.mem_ctrls.perBankRdBursts::1               936                       # Per bank write bursts
system.mem_ctrls.perBankRdBursts::2               936                       # Per bank write bursts
system.mem_ctrls.perBankRdBursts::3               932                       # Per bank write bursts
system.mem_ctrls.perBankRdBursts::4               866                       # Per bank write bursts
system.mem_ctrls.perBankRdBursts::5               935                       # Per bank write bursts
system.mem_ctrls.perBankRdBursts::6               945                       # Per bank write bursts
system.mem_ctrls.perBankRdBursts::7               906                       # Per bank write bursts
system.mem_ctrls.perBankRdBursts::8               915                       # Per bank write bursts
system.mem_ctrls.perBankRdBursts::9               953                       # Per bank write bursts
system.mem_ctrls.perBankRdBursts::10              938                       # Per bank write bursts
system.mem_ctrls.perBankRdBursts::11              928                       # Per bank write bursts
system.mem_ctrls.perBankRdBursts::12              920                       # Per bank write bursts
system.mem_ctrls.perBankRdBursts::13              966                       # Per bank write bursts
system.mem_ctrls.perBankRdBursts::14              982                       # Per bank write bursts
system.mem_ctrls.perBankRdBursts::15              970                       # Per bank write bursts
system.mem_ctrls.perBankWrBursts::0               886                       # Per bank write bursts
system.mem_ctrls.perBankWrBursts::1               880                       # Per bank write bursts
system.mem_ctrls.perBankWrBursts::2               880                       # Per bank write bursts
system.mem_ctrls.perBankWrBursts::3               881                       # Per bank write bursts
system.mem_ctrls.perBankWrBursts::4               807                       # Per bank write bursts
system.mem_ctrls.perBankWrBursts::5               892                       # Per bank write bursts
system.mem_ctrls.perBankWrBursts::6               887                       # Per bank write bursts
system.mem_ctrls.perBankWrBursts::7               847                       # Per bank write bursts
system.mem_ctrls.perBankWrBursts::8               870                       # Per bank write bursts
system.mem_ctrls.perBankWrBursts::9               899                       # Per bank write bursts
system.mem_ctrls.perBankWrBursts::10              883                       # Per bank write bursts
system.mem_ctrls.perBankWrBursts::11              880                       # Per bank write bursts
system.mem_ctrls.perBankWrBursts::12              879                       # Per bank write bursts
system.mem_ctrls.perBankWrBursts::13              903                       # Per bank write bursts
system.mem_ctrls.perBankWrBursts::14              924                       # Per bank write bursts
system.mem_ctrls.perBankWrBursts::15              911                       # Per bank write bursts
system.mem_ctrls.numRdRetry                         0                       # Number of times read queue was full causing retry
system.mem_ctrls.numWrRetry                         0                       # Number of times write queue was full causing retry
system.mem_ctrls.totGap                   15266188000                       # Total gap between requests
system.mem_ctrls.readPktSize::0                     0                       # Read request sizes (log2)
system.mem_ctrls.readPktSize::1                     0                       # Read request sizes (log2)
system.mem_ctrls.readPktSize::2                     0                       # Read request sizes (log2)
system.mem_ctrls.readPktSize::3                     0                       # Read request sizes (log2)
system.mem_ctrls.readPktSize::4                     0                       # Read request sizes (log2)
system.mem_ctrls.readPktSize::5                     0                       # Read request sizes (log2)
system.mem_ctrls.readPktSize::6                 14966                       # Read request sizes (log2)
system.mem_ctrls.writePktSize::0                    0                       # Write request sizes (log2)
system.mem_ctrls.writePktSize::1                    0                       # Write request sizes (log2)
system.mem_ctrls.writePktSize::2                    0                       # Write request sizes (log2)
system.mem_ctrls.writePktSize::3                    0                       # Write request sizes (log2)
system.mem_ctrls.writePktSize::4                    0                       # Write request sizes (log2)
system.mem_ctrls.writePktSize::5                    0                       # Write request sizes (log2)
system.mem_ctrls.writePktSize::6                14107                       # Write request sizes (log2)
system.mem_ctrls.rdQLenPdf::0                   14034                       # What read queue length does an incoming req see
system.mem_ctrls.rdQLenPdf::1                     929                       # What read queue length does an incoming req see
system.mem_ctrls.rdQLenPdf::2                       1                       # What read queue length does an incoming req see
system.mem_ctrls.rdQLenPdf::3                       0                       # What read queue length does an incoming req see
system.mem_ctrls.rdQLenPdf::4                       0                       # What read queue length does an incoming req see
system.mem_ctrls.rdQLenPdf::5                       0                       # What read queue length does an incoming req see
system.mem_ctrls.rdQLenPdf::6                       0                       # What read queue length does an incoming req see
system.mem_ctrls.rdQLenPdf::7                       0                       # What read queue length does an incoming req see
system.mem_ctrls.rdQLenPdf::8                       0                       # What read queue length does an incoming req see
system.mem_ctrls.rdQLenPdf::9                       0                       # What read queue length does an incoming req see
system.mem_ctrls.rdQLenPdf::10                      0                       # What read queue length does an incoming req see
system.mem_ctrls.rdQLenPdf::11                      0                       # What read queue length does an incoming req see
system.mem_ctrls.rdQLenPdf::12                      0                       # What read queue length does an incoming req see
system.mem_ctrls.rdQLenPdf::13                      0                       # What read queue length does an incoming req see
system.mem_ctrls.rdQLenPdf::14                      0                       # What read queue length does an incoming req see
system.mem_ctrls.rdQLenPdf::15                      0                       # What read queue length does an incoming req see
system.mem_ctrls.rdQLenPdf::16                      0                       # What read queue length does an incoming req see
system.mem_ctrls.rdQLenPdf::17                      0                       # What read queue length does an incoming req see
system.mem_ctrls.rdQLenPdf::18                      0                       # What read queue length does an incoming req see
system.mem_ctrls.rdQLenPdf::19                      0                       # What read queue length does an incoming req see
system.mem_ctrls.rdQLenPdf::20                      0                       # What read queue length does an incoming req see
system.mem_ctrls.rdQLenPdf::21                      0                       # What read queue length does an incoming req see
system.mem_ctrls.rdQLenPdf::22                      0                       # What read queue length does an incoming req see
system.mem_ctrls.rdQLenPdf::23                      0                       # What read queue length does an incoming req see
system.mem_ctrls.rdQLenPdf::24                      0                       # What read queue length does an incoming req see
system.mem_ctrls.rdQLenPdf::25                      0                       # What read queue length does an incoming req see
system.mem_ctrls.rdQLenPdf::26                      0                       # What read queue length does an incoming req see
system.mem_ctrls.rdQLenPdf::27                      0                       # What read queue length does an incoming req see
system.mem_ctrls.rdQLenPdf::28                      0                       # What read queue length does an incoming req see
system.mem_ctrls.rdQLenPdf::29                      0                       # What read queue length does an incoming req see
system.mem_ctrls.rdQLenPdf::30                      0                       # What read queue length does an incoming req see
system.mem_ctrls.rdQLenPdf::31                      0                       # What read queue length does an incoming req see
system.mem_ctrls.wrQLenPdf::0                       0                       # What write queue length does an incoming req see
system.mem_ctrls.wrQLenPdf::1                       0                       # What write queue length does an incoming req see
system.mem_ctrls.wrQLenPdf::2                       0                       # What write queue length does an incoming req see
system.mem_ctrls.wrQLenPdf::3                       0                       # What write queue length does an incoming req see
system.mem_ctrls.wrQLenPdf::4                       0                       # What write queue length does an incoming req see
system.mem_ctrls.wrQLenPdf::5                       0                       # What write queue length does an incoming req see
system.mem_ctrls.wrQLenPdf::6                       0                       # What write queue length does an incoming req see
system.mem_ctrls.wrQLenPdf::7                       0                       # What write queue length does an incoming req see
system.mem_ctrls.wrQLenPdf::8                       0                       # What write queue length does an incoming req see
system.mem_ctrls.wrQLenPdf::9                       0                       # What write queue length does an incoming req see
system.mem_ctrls.wrQLenPdf::10                      0                       # What write queue length does an incoming req see
system.mem_ctrls.wrQLenPdf::11                      0                       # What write queue length does an incoming req see
system.mem_ctrls.wrQLenPdf::12                      0                       # What write queue length does an incoming req see
system.mem_ctrls.wrQLenPdf::13                      0                       # What write queue length does an incoming req see
system.mem_ctrls.wrQLenPdf::14                      0                       # What write queue length does an incoming req see
system.mem_ctrls.wrQLenPdf::15                    496                       # What write queue length does an incoming req see
system.mem_ctrls.wrQLenPdf::16                    519                       # What write queue length does an incoming req see
system.mem_ctrls.wrQLenPdf::17                    807                       # What write queue length does an incoming req see
system.mem_ctrls.wrQLenPdf::18                    816                       # What write queue length does an incoming req see
system.mem_ctrls.wrQLenPdf::19                    816                       # What write queue length does an incoming req see
system.mem_ctrls.wrQLenPdf::20                    817                       # What write queue length does an incoming req see
system.mem_ctrls.wrQLenPdf::21                    817                       # What write queue length does an incoming req see
system.mem_ctrls.wrQLenPdf::22                    815                       # What write queue length does an incoming req see
system.mem_ctrls.wrQLenPdf::23                    817                       # What write queue length does an incoming req see
system.mem_ctrls.wrQLenPdf::24                    816                       # What write queue length does an incoming req see
system.mem_ctrls.wrQLenPdf::25                    817                       # What write queue length does an incoming req see
system.mem_ctrls.wrQLenPdf::26                    816                       # What write queue length does an incoming req see
system.mem_ctrls.wrQLenPdf::27                    817                       # What write queue length does an incoming req see
system.mem_ctrls.wrQLenPdf::28                    817                       # What write queue length does an incoming req see
system.mem_ctrls.wrQLenPdf::29                    821                       # What write queue length does an incoming req see
system.mem_ctrls.wrQLenPdf::30                    850                       # What write queue length does an incoming req see
system.mem_ctrls.wrQLenPdf::31                    817                       # What write queue length does an incoming req see
system.mem_ctrls.wrQLenPdf::32                    816                       # What write queue length does an incoming req see
system.mem_ctrls.wrQLenPdf::33                      0                       # What write queue length does an incoming req see
system.mem_ctrls.wrQLenPdf::34                      0                       # What write queue length does an incoming req see
system.mem_ctrls.wrQLenPdf::35                      0                       # What write queue length does an incoming req see
system.mem_ctrls.wrQLenPdf::36                      0                       # What write queue length does an incoming req see
system.mem_ctrls.wrQLenPdf::37                      0                       # What write queue length does an incoming req see
system.mem_ctrls.wrQLenPdf::38                      0                       # What write queue length does an incoming req see
system.mem_ctrls.wrQLenPdf::39                      0                       # What write queue length does an incoming req see
system.mem_ctrls.wrQLenPdf::40                      0                       # What write queue length does an incoming req see
system.mem_ctrls.wrQLenPdf::41                      0                       # What write queue length does an incoming req see
system.mem_ctrls.wrQLenPdf::42                      0                       # What write queue length does an incoming req see
system.mem_ctrls.wrQLenPdf::43                      0                       # What write queue length does an incoming req see
system.mem_ctrls.wrQLenPdf::44                      0                       # What write queue length does an incoming req see
system.mem_ctrls.wrQLenPdf::45                      0                       # What write queue length does an incoming req see
system.mem_ctrls.wrQLenPdf::46                      0                       # What write queue length does an incoming req see
system.mem_ctrls.wrQLenPdf::47                      0                       # What write queue length does an incoming req see
system.mem_ctrls.wrQLenPdf::48                      0                       # What write queue length does an incoming req see
system.mem_ctrls.wrQLenPdf::49                      0                       # What write queue length does an incoming req see
system.mem_ctrls.wrQLenPdf::50                      0                       # What write queue length does an incoming req see
system.mem_ctrls.wrQLenPdf::51                      0                       # What write queue length does an incoming req see
system.mem_ctrls.wrQLenPdf::52                      0                       # What write queue length does an incoming req see
system.mem_ctrls.wrQLenPdf::53                      0                       # What write queue length does an incoming req see
system.mem_ctrls.wrQLenPdf::54                      0                       # What write queue length does an incoming req see
system.mem_ctrls.wrQLenPdf::55                      0                       # What write queue length does an incoming req see
system.mem_ctrls.wrQLenPdf::56                      0                       # What write queue length does an incoming req see
system.mem_ctrls.wrQLenPdf::57                      0                       # What write queue length does an incoming req see
system.mem_ctrls.wrQLenPdf::58                      0                       # What write queue length does an incoming req see
system.mem_ctrls.wrQLenPdf::59                      0                       # What write queue length does an incoming req see
system.mem_ctrls.wrQLenPdf::60                      0                       # What write queue length does an incoming req see
system.mem_ctrls.wrQLenPdf::61                      0                       # What write queue length does an incoming req see
system.mem_ctrls.wrQLenPdf::62                      0                       # What write queue length does an incoming req see
system.mem_ctrls.wrQLenPdf::63                      0                       # What write queue length does an incoming req see
system.mem_ctrls.bytesPerActivate::samples        20989                       # Bytes accessed per row activation
system.mem_ctrls.bytesPerActivate::mean     88.668160                       # Bytes accessed per row activation
system.mem_ctrls.bytesPerActivate::gmean    80.314155                       # Bytes accessed per row activation
system.mem_ctrls.bytesPerActivate::stdev    49.674453                       # Bytes accessed per row activation
system.mem_ctrls.bytesPerActivate::64-127        15367     73.21%     73.21% # Bytes accessed per row activation
system.mem_ctrls.bytesPerActivate::128-191         4052     19.31%     92.52% # Bytes accessed per row activation
system.mem_ctrls.bytesPerActivate::192-255          986      4.70%     97.22% # Bytes accessed per row activation
system.mem_ctrls.bytesPerActivate::256-319          380      1.81%     99.03% # Bytes accessed per row activation
system.mem_ctrls.bytesPerActivate::320-383          130      0.62%     99.65% # Bytes accessed per row activation
system.mem_ctrls.bytesPerActivate::384-447           47      0.22%     99.87% # Bytes accessed per row activation
system.mem_ctrls.bytesPerActivate::448-511           19      0.09%     99.96% # Bytes accessed per row activation
system.mem_ctrls.bytesPerActivate::512-575            7      0.03%    100.00% # Bytes accessed per row activation
system.mem_ctrls.bytesPerActivate::576-639            1      0.00%    100.00% # Bytes accessed per row activation
system.mem_ctrls.bytesPerActivate::total        20989                       # Bytes accessed per row activation
system.mem_ctrls.rdPerTurnAround::samples          816                       # Reads before turning the bus around for writes
system.mem_ctrls.rdPerTurnAround::mean      18.339461                       # Reads before turning the bus around for writes
system.mem_ctrls.rdPerTurnAround::gmean     18.279780                       # Reads before turning the bus around for writes
system.mem_ctrls.rdPerTurnAround::stdev      1.481572                       # Reads before turning the bus around for writes
system.mem_ctrls.rdPerTurnAround::15                5      0.61%      0.61% # Reads before turning the bus around for writes
system.mem_ctrls.rdPerTurnAround::16              106     12.99%     13.60% # Reads before turning the bus around for writes
system.mem_ctrls.rdPerTurnAround::17              118     14.46%     28.06% # Reads before turning the bus around for writes
system.mem_ctrls.rdPerTurnAround::18              207     25.37%     53.43% # Reads before turning the bus around for writes
system.mem_ctrls.rdPerTurnAround::19              209     25.61%     79.04% # Reads before turning the bus around for writes
system.mem_ctrls.rdPerTurnAround::20              120     14.71%     93.75% # Reads before turning the bus around for writes
system.mem_ctrls.rdPerTurnAround::21               35      4.29%     98.04% # Reads before turning the bus around for writes
system.mem_ctrls.rdPerTurnAround::22               12      1.47%     99.51% # Reads before turning the bus around for writes
system.mem_ctrls.rdPerTurnAround::23                4      0.49%    100.00% # Reads before turning the bus around for writes
system.mem_ctrls.rdPerTurnAround::total           816                       # Reads before turning the bus around for writes
system.mem_ctrls.wrPerTurnAround::samples          816                       # Writes before turning the bus around for reads
system.mem_ctrls.wrPerTurnAround::mean      17.290441                       # Writes before turning the bus around for reads
system.mem_ctrls.wrPerTurnAround::gmean     17.260918                       # Writes before turning the bus around for reads
system.mem_ctrls.wrPerTurnAround::stdev      1.003164                       # Writes before turning the bus around for reads
system.mem_ctrls.wrPerTurnAround::16              293     35.91%     35.91% # Writes before turning the bus around for reads
system.mem_ctrls.wrPerTurnAround::17               26      3.19%     39.09% # Writes before turning the bus around for reads
system.mem_ctrls.wrPerTurnAround::18              464     56.86%     95.96% # Writes before turning the bus around for reads
system.mem_ctrls.wrPerTurnAround::19               33      4.04%    100.00% # Writes before turning the bus around for reads
system.mem_ctrls.wrPerTurnAround::total           816                       # Writes before turning the bus around for reads
system.mem_ctrls.totQLat                    445949250                       # Total ticks spent queuing
system.mem_ctrls.totMemAccLat               726524250                       # Total ticks spent from burst creation until serviced by the DRAM
system.mem_ctrls.totBusLat                   74820000                       # Total ticks spent in databus transfers
system.mem_ctrls.avgQLat                     29801.47                       # Average queueing delay per DRAM burst
system.mem_ctrls.avgBusLat                    5000.00                       # Average bus latency per DRAM burst
system.mem_ctrls.avgMemAccLat                48551.47                       # Average memory access latency per DRAM burst
system.mem_ctrls.avgRdBW                        62.73                       # Average DRAM read bandwidth in MiByte/s
system.mem_ctrls.avgWrBW                        59.14                       # Average achieved write bandwidth in MiByte/s
system.mem_ctrls.avgRdBWSys                     62.74                       # Average system read bandwidth in MiByte/s
system.mem_ctrls.avgWrBWSys                     59.14                       # Average system write bandwidth in MiByte/s
system.mem_ctrls.peakBW                      12800.00                       # Theoretical peak bandwidth in MiByte/s
system.mem_ctrls.busUtil                         0.95                       # Data bus utilization in percentage
system.mem_ctrls.busUtilRead                     0.49                       # Data bus utilization in percentage for reads
system.mem_ctrls.busUtilWrite                    0.46                       # Data bus utilization in percentage for writes
system.mem_ctrls.avgRdQLen                       1.11                       # Average read queue length when enqueuing
system.mem_ctrls.avgWrQLen                      24.93                       # Average write queue length when enqueuing
system.mem_ctrls.readRowHits                     5071                       # Number of row buffer hits during reads
system.mem_ctrls.writeRowHits                    3018                       # Number of row buffer hits during writes
system.mem_ctrls.readRowHitRate                 33.89                       # Row buffer hit rate for reads
system.mem_ctrls.writeRowHitRate                21.39                       # Row buffer hit rate for writes
system.mem_ctrls.avgGap                     525098.48                       # Average gap between requests
system.mem_ctrls.pageHitRate                    27.82                       # Row buffer hit rate, read and write combined
system.mem_ctrls_0.actEnergy                 74477340                       # Energy for activate commands per rank (pJ)
system.mem_ctrls_0.preEnergy                 39597030                       # Energy for precharge commands per rank (pJ)
system.mem_ctrls_0.readEnergy                52778880                       # Energy for read commands per rank (pJ)
system.mem_ctrls_0.writeEnergy               36331200                       # Energy for write commands per rank (pJ)
system.mem_ctrls_0.refreshEnergy         1221904320.000000                       # Energy for refresh commands per rank (pJ)
system.mem_ctrls_0.actBackEnergy            951644640                       # Energy for active background per rank (pJ)
system.mem_ctrls_0.preBackEnergy             33236160                       # Energy for precharge background per rank (pJ)
system.mem_ctrls_0.actPowerDownEnergy      4202751930                       # Energy for active power-down per rank (pJ)
system.mem_ctrls_0.prePowerDownEnergy      1367429760                       # Energy for precharge power-down per rank (pJ)
system.mem_ctrls_0.selfRefreshEnergy        116219820                       # Energy for self refresh per rank (pJ)
system.mem_ctrls_0.totalEnergy             8096633880                       # Total energy per rank (pJ)
system.mem_ctrls_0.averagePower            530.323664                       # Core power per rank (mW)
system.mem_ctrls_0.totalIdleTime          13091866500                       # Total Idle time Per DRAM Rank
system.mem_ctrls_0.memoryStateTime::IDLE     30193500                       # Time in different power states
system.mem_ctrls_0.memoryStateTime::REF     517378000                       # Time in different power states
system.mem_ctrls_0.memoryStateTime::SREF    315693000                       # Time in different power states
system.mem_ctrls_0.memoryStateTime::PRE_PDN   3560938000                       # Time in different power states
system.mem_ctrls_0.memoryStateTime::ACT    1626344500                       # Time in different power states
system.mem_ctrls_0.memoryStateTime::ACT_PDN   9216797125                       # Time in different power states
system.mem_ctrls_1.actEnergy                 75348420                       # Energy for activate commands per rank (pJ)
system.mem_ctrls_1.preEnergy                 40056225                       # Energy for precharge commands per rank (pJ)
system.mem_ctrls_1.readEnergy                54064080                       # Energy for read commands per rank (pJ)
system.mem_ctrls_1.writeEnergy               37317780                       # Energy for write commands per rank (pJ)
system.mem_ctrls_1.refreshEnergy         1222518960.000000                       # Energy for refresh commands per rank (pJ)
system.mem_ctrls_1.actBackEnergy            932721210                       # Energy for active background per rank (pJ)
system.mem_ctrls_1.preBackEnergy             33247680                       # Energy for precharge background per rank (pJ)
system.mem_ctrls_1.actPowerDownEnergy      4322798490                       # Energy for active power-down per rank (pJ)
system.mem_ctrls_1.prePowerDownEnergy      1299003360                       # Energy for precharge power-down per rank (pJ)
system.mem_ctrls_1.selfRefreshEnergy        102442980                       # Energy for self refresh per rank (pJ)
system.mem_ctrls_1.totalEnergy             8119707165                       # Total energy per rank (pJ)
system.mem_ctrls_1.averagePower            531.834948                       # Core power per rank (mW)
system.mem_ctrls_1.totalIdleTime          13133183250                       # Total Idle time Per DRAM Rank
system.mem_ctrls_1.memoryStateTime::IDLE     28793750                       # Time in different power states
system.mem_ctrls_1.memoryStateTime::REF     517560000                       # Time in different power states
system.mem_ctrls_1.memoryStateTime::SREF    272255250                       # Time in different power states
system.mem_ctrls_1.memoryStateTime::PRE_PDN   3382825000                       # Time in different power states
system.mem_ctrls_1.memoryStateTime::ACT    1586338750                       # Time in different power states
system.mem_ctrls_1.memoryStateTime::ACT_PDN   9479571375                       # Time in different power states
system.pwrStateResidencyTicks::UNDEFINED  15267344125                       # Cumulative time (in ticks) in various power states
system.cpu0.branchPred.lookups               13300642                       # Number of BP lookups
system.cpu0.branchPred.condPredicted         13300642                       # Number of conditional branches predicted
system.cpu0.branchPred.condIncorrect          1392076                       # Number of conditional branches incorrect
system.cpu0.branchPred.BTBLookups            11088556                       # Number of BTB lookups
system.cpu0.branchPred.BTBHits                      0                       # Number of BTB hits
system.cpu0.branchPred.BTBCorrect                   0                       # Number of correct BTB predictions (this stat may not work properly.
system.cpu0.branchPred.BTBHitPct             0.000000                       # BTB Hit Percentage
system.cpu0.branchPred.usedRAS                1042743                       # Number of times the RAS was used to get a target.
system.cpu0.branchPred.RASInCorrect            185662                       # Number of incorrect RAS predictions.
system.cpu0.branchPred.indirectLookups       11088556                       # Number of indirect predictor lookups.
system.cpu0.branchPred.indirectHits           2634501                       # Number of indirect target hits.
system.cpu0.branchPred.indirectMisses         8454055                       # Number of indirect misses.
system.cpu0.branchPredindirectMispredicted       922660                       # Number of mispredicted indirect branches.
system.cpu_voltage_domain.voltage                   1                       # Voltage in Volts
system.cpu_clk_domain.clock                       500                       # Clock period in ticks
system.cpu0.dtb.walker.pwrStateResidencyTicks::UNDEFINED  15267344125                       # Cumulative time (in ticks) in various power states
system.cpu0.dtb.rdAccesses                    6951951                       # TLB accesses on read requests
system.cpu0.dtb.wrAccesses                    2234503                       # TLB accesses on write requests
system.cpu0.dtb.rdMisses                        83233                       # TLB misses on read requests
system.cpu0.dtb.wrMisses                        17011                       # TLB misses on write requests
system.cpu0.apic_clk_domain.clock                8000                       # Clock period in ticks
system.cpu0.interrupts.pwrStateResidencyTicks::UNDEFINED  15267344125                       # Cumulative time (in ticks) in various power states
system.cpu0.itb.walker.pwrStateResidencyTicks::UNDEFINED  15267344125                       # Cumulative time (in ticks) in various power states
system.cpu0.itb.rdAccesses                          0                       # TLB accesses on read requests
system.cpu0.itb.wrAccesses                    6550823                       # TLB accesses on write requests
system.cpu0.itb.rdMisses                            0                       # TLB misses on read requests
system.cpu0.itb.wrMisses                         2880                       # TLB misses on write requests
system.cpu0.workload.numSyscalls                   19                       # Number of system calls
system.cpu0.pwrStateResidencyTicks::ON    15267344125                       # Cumulative time (in ticks) in various power states
system.cpu0.numCycles                        30534688                       # number of cpu cycles simulated
system.cpu0.numWorkItemsStarted                     0                       # number of work items this cpu started
system.cpu0.numWorkItemsCompleted                   0                       # number of work items this cpu completed
system.cpu0.fetch.icacheStallCycles           7392619                       # Number of cycles fetch is stalled on an Icache miss
system.cpu0.fetch.Insts                      56599883                       # Number of instructions fetch has processed
system.cpu0.fetch.Branches                   13300642                       # Number of branches that fetch encountered
system.cpu0.fetch.predictedBranches           3677244                       # Number of branches that fetch has predicted taken
system.cpu0.fetch.Cycles                     21730572                       # Number of cycles fetch has run and was not squashing or blocked
system.cpu0.fetch.SquashCycles                2786484                       # Number of cycles fetch has spent squashing
system.cpu0.fetch.TlbCycles                        18                       # Number of cycles fetch has spent waiting for tlb
system.cpu0.fetch.MiscStallCycles                 990                       # Number of cycles fetch has spent waiting on interrupts, or bad addresses, or out of MSHRs
system.cpu0.fetch.PendingTrapStallCycles        16430                       # Number of stall cycles due to pending traps
system.cpu0.fetch.CacheLines                  6547943                       # Number of cache lines fetched
system.cpu0.fetch.IcacheSquashes               322983                       # Number of outstanding Icache misses that were squashed
system.cpu0.fetch.rateDist::samples          30533871                       # Number of instructions fetched each cycle (Total)
system.cpu0.fetch.rateDist::mean             4.053431                       # Number of instructions fetched each cycle (Total)
system.cpu0.fetch.rateDist::stdev            3.670022                       # Number of instructions fetched each cycle (Total)
system.cpu0.fetch.rateDist::underflows              0      0.00%      0.00% # Number of instructions fetched each cycle (Total)
system.cpu0.fetch.rateDist::0                12034318     39.41%     39.41% # Number of instructions fetched each cycle (Total)
system.cpu0.fetch.rateDist::1                  529657      1.73%     41.15% # Number of instructions fetched each cycle (Total)
system.cpu0.fetch.rateDist::2                  911293      2.98%     44.13% # Number of instructions fetched each cycle (Total)
system.cpu0.fetch.rateDist::3                 1336045      4.38%     48.51% # Number of instructions fetched each cycle (Total)
system.cpu0.fetch.rateDist::4                  587298      1.92%     50.43% # Number of instructions fetched each cycle (Total)
system.cpu0.fetch.rateDist::5                 1170092      3.83%     54.26% # Number of instructions fetched each cycle (Total)
system.cpu0.fetch.rateDist::6                 1020462      3.34%     57.61% # Number of instructions fetched each cycle (Total)
system.cpu0.fetch.rateDist::7                  473519      1.55%     59.16% # Number of instructions fetched each cycle (Total)
system.cpu0.fetch.rateDist::8                12471187     40.84%    100.00% # Number of instructions fetched each cycle (Total)
system.cpu0.fetch.rateDist::overflows               0      0.00%    100.00% # Number of instructions fetched each cycle (Total)
system.cpu0.fetch.rateDist::min_value               0                       # Number of instructions fetched each cycle (Total)
system.cpu0.fetch.rateDist::max_value               8                       # Number of instructions fetched each cycle (Total)
system.cpu0.fetch.rateDist::total            30533871                       # Number of instructions fetched each cycle (Total)
system.cpu0.fetch.branchRate                 0.435591                       # Number of branch fetches per cycle
system.cpu0.fetch.rate                       1.853626                       # Number of inst fetches per cycle
system.cpu0.decode.IdleCycles                 5567447                       # Number of cycles decode is idle
system.cpu0.decode.BlockedCycles              8330394                       # Number of cycles decode is blocked
system.cpu0.decode.RunCycles                 13758545                       # Number of cycles decode is running
system.cpu0.decode.UnblockCycles              1484243                       # Number of cycles decode is unblocking
system.cpu0.decode.SquashCycles               1393242                       # Number of cycles decode is squashing
system.cpu0.decode.DecodedInsts             110658922                       # Number of instructions handled by decode
system.cpu0.rename.SquashCycles               1393242                       # Number of cycles rename is squashing
system.cpu0.rename.IdleCycles                 6658122                       # Number of cycles rename is idle
system.cpu0.rename.BlockCycles                6891449                       # Number of cycles rename is blocking
system.cpu0.rename.serializeStallCycles        248806                       # count of cycles rename stalled for serializing inst
system.cpu0.rename.RunCycles                 13933497                       # Number of cycles rename is running
system.cpu0.rename.UnblockCycles              1408755                       # Number of cycles rename is unblocking
system.cpu0.rename.RenamedInsts             103422544                       # Number of instructions processed by rename
system.cpu0.rename.ROBFullEvents                27280                       # Number of times rename has blocked due to ROB full
system.cpu0.rename.IQFullEvents                803783                       # Number of times rename has blocked due to IQ full
system.cpu0.rename.LQFullEvents                   383                       # Number of times rename has blocked due to LQ full
system.cpu0.rename.SQFullEvents                366854                       # Number of times rename has blocked due to SQ full
system.cpu0.rename.RenamedOperands          116323769                       # Number of destination operands rename has renamed
system.cpu0.rename.RenameLookups            256296493                       # Number of register rename lookups that rename has made
system.cpu0.rename.int_rename_lookups       139656090                       # Number of integer rename lookups
system.cpu0.rename.fp_rename_lookups         20596668                       # Number of floating rename lookups
system.cpu0.rename.CommittedMaps             48110232                       # Number of HB maps that are committed
system.cpu0.rename.UndoneMaps                68213510                       # Number of HB maps that are undone due to squashing
system.cpu0.rename.serializingInsts             32749                       # count of serializing insts renamed
system.cpu0.rename.tempSerializingInsts         35145                       # count of temporary serializing insts renamed
system.cpu0.rename.skidInsts                  3489652                       # count of insts added to the skid buffer
system.cpu0.memDep0.insertedLoads             9492274                       # Number of loads inserted to the mem dependence unit.
system.cpu0.memDep0.insertedStores            3115755                       # Number of stores inserted to the mem dependence unit.
system.cpu0.memDep0.conflictingLoads           143867                       # Number of conflicting loads.
system.cpu0.memDep0.conflictingStores          148534                       # Number of conflicting stores.
system.cpu0.iq.iqInstsAdded                  89665682                       # Number of instructions added to the IQ (excludes non-spec)
system.cpu0.iq.iqNonSpecInstsAdded             199690                       # Number of non-speculative instructions added to the IQ
system.cpu0.iq.iqInstsIssued                 71073738                       # Number of instructions issued
system.cpu0.iq.iqSquashedInstsIssued           665338                       # Number of squashed instructions issued
system.cpu0.iq.iqSquashedInstsExamined       48477427                       # Number of squashed instructions iterated over during squash; mainly for profiling
system.cpu0.iq.iqSquashedOperandsExamined     70139632                       # Number of squashed operands that are examined and possibly removed from graph
system.cpu0.iq.iqSquashedNonSpecRemoved        199581                       # Number of squashed non-spec instructions that were removed
system.cpu0.iq.issued_per_cycle::samples     30533871                       # Number of insts issued each cycle
system.cpu0.iq.issued_per_cycle::mean        2.327702                       # Number of insts issued each cycle
system.cpu0.iq.issued_per_cycle::stdev       2.589907                       # Number of insts issued each cycle
system.cpu0.iq.issued_per_cycle::underflows            0      0.00%      0.00% # Number of insts issued each cycle
system.cpu0.iq.issued_per_cycle::0           13243549     43.37%     43.37% # Number of insts issued each cycle
system.cpu0.iq.issued_per_cycle::1            2263237      7.41%     50.79% # Number of insts issued each cycle
system.cpu0.iq.issued_per_cycle::2            2799670      9.17%     59.95% # Number of insts issued each cycle
system.cpu0.iq.issued_per_cycle::3            2320849      7.60%     67.56% # Number of insts issued each cycle
system.cpu0.iq.issued_per_cycle::4            2354497      7.71%     75.27% # Number of insts issued each cycle
system.cpu0.iq.issued_per_cycle::5            2230441      7.30%     82.57% # Number of insts issued each cycle
system.cpu0.iq.issued_per_cycle::6            2650182      8.68%     91.25% # Number of insts issued each cycle
system.cpu0.iq.issued_per_cycle::7            1594239      5.22%     96.47% # Number of insts issued each cycle
system.cpu0.iq.issued_per_cycle::8            1077207      3.53%    100.00% # Number of insts issued each cycle
system.cpu0.iq.issued_per_cycle::overflows            0      0.00%    100.00% # Number of insts issued each cycle
system.cpu0.iq.issued_per_cycle::min_value            0                       # Number of insts issued each cycle
system.cpu0.iq.issued_per_cycle::max_value            8                       # Number of insts issued each cycle
system.cpu0.iq.issued_per_cycle::total       30533871                       # Number of insts issued each cycle
system.cpu0.iq.fu_full::No_OpClass                  0      0.00%      0.00% # attempts to use FU when none available
system.cpu0.iq.fu_full::IntAlu                1423858     92.67%     92.67% # attempts to use FU when none available
system.cpu0.iq.fu_full::IntMult                     0      0.00%     92.67% # attempts to use FU when none available
system.cpu0.iq.fu_full::IntDiv                      0      0.00%     92.67% # attempts to use FU when none available
system.cpu0.iq.fu_full::FloatAdd                81449      5.30%     97.98% # attempts to use FU when none available
system.cpu0.iq.fu_full::FloatCmp                    0      0.00%     97.98% # attempts to use FU when none available
system.cpu0.iq.fu_full::FloatCvt                    0      0.00%     97.98% # attempts to use FU when none available
system.cpu0.iq.fu_full::FloatMult                   0      0.00%     97.98% # attempts to use FU when none available
system.cpu0.iq.fu_full::FloatMultAcc                0      0.00%     97.98% # attempts to use FU when none available
system.cpu0.iq.fu_full::FloatDiv                    0      0.00%     97.98% # attempts to use FU when none available
system.cpu0.iq.fu_full::FloatMisc                   0      0.00%     97.98% # attempts to use FU when none available
system.cpu0.iq.fu_full::FloatSqrt                   0      0.00%     97.98% # attempts to use FU when none available
system.cpu0.iq.fu_full::SimdAdd                     0      0.00%     97.98% # attempts to use FU when none available
system.cpu0.iq.fu_full::SimdAddAcc                  0      0.00%     97.98% # attempts to use FU when none available
system.cpu0.iq.fu_full::SimdAlu                     0      0.00%     97.98% # attempts to use FU when none available
system.cpu0.iq.fu_full::SimdCmp                     0      0.00%     97.98% # attempts to use FU when none available
system.cpu0.iq.fu_full::SimdCvt                     0      0.00%     97.98% # attempts to use FU when none available
system.cpu0.iq.fu_full::SimdMisc                    0      0.00%     97.98% # attempts to use FU when none available
system.cpu0.iq.fu_full::SimdMult                    0      0.00%     97.98% # attempts to use FU when none available
system.cpu0.iq.fu_full::SimdMultAcc                 0      0.00%     97.98% # attempts to use FU when none available
system.cpu0.iq.fu_full::SimdShift                   0      0.00%     97.98% # attempts to use FU when none available
system.cpu0.iq.fu_full::SimdShiftAcc                0      0.00%     97.98% # attempts to use FU when none available
system.cpu0.iq.fu_full::SimdSqrt                    0      0.00%     97.98% # attempts to use FU when none available
system.cpu0.iq.fu_full::SimdFloatAdd                0      0.00%     97.98% # attempts to use FU when none available
system.cpu0.iq.fu_full::SimdFloatAlu                0      0.00%     97.98% # attempts to use FU when none available
system.cpu0.iq.fu_full::SimdFloatCmp                0      0.00%     97.98% # attempts to use FU when none available
system.cpu0.iq.fu_full::SimdFloatCvt                0      0.00%     97.98% # attempts to use FU when none available
system.cpu0.iq.fu_full::SimdFloatDiv                0      0.00%     97.98% # attempts to use FU when none available
system.cpu0.iq.fu_full::SimdFloatMisc               0      0.00%     97.98% # attempts to use FU when none available
system.cpu0.iq.fu_full::SimdFloatMult               0      0.00%     97.98% # attempts to use FU when none available
system.cpu0.iq.fu_full::SimdFloatMultAcc            0      0.00%     97.98% # attempts to use FU when none available
system.cpu0.iq.fu_full::SimdFloatSqrt               0      0.00%     97.98% # attempts to use FU when none available
system.cpu0.iq.fu_full::MemRead                  4581      0.30%     98.27% # attempts to use FU when none available
system.cpu0.iq.fu_full::MemWrite                 1869      0.12%     98.40% # attempts to use FU when none available
system.cpu0.iq.fu_full::FloatMemRead            24190      1.57%     99.97% # attempts to use FU when none available
system.cpu0.iq.fu_full::FloatMemWrite             453      0.03%    100.00% # attempts to use FU when none available
system.cpu0.iq.fu_full::IprAccess                   0      0.00%    100.00% # attempts to use FU when none available
system.cpu0.iq.fu_full::InstPrefetch                0      0.00%    100.00% # attempts to use FU when none available
system.cpu0.iq.FU_type_0::No_OpClass          1930885      2.72%      2.72% # Type of FU issued
system.cpu0.iq.FU_type_0::IntAlu             53816955     75.72%     78.44% # Type of FU issued
system.cpu0.iq.FU_type_0::IntMult                2518      0.00%     78.44% # Type of FU issued
system.cpu0.iq.FU_type_0::IntDiv                69641      0.10%     78.54% # Type of FU issued
system.cpu0.iq.FU_type_0::FloatAdd            5233238      7.36%     85.90% # Type of FU issued
system.cpu0.iq.FU_type_0::FloatCmp                  0      0.00%     85.90% # Type of FU issued
system.cpu0.iq.FU_type_0::FloatCvt                  0      0.00%     85.90% # Type of FU issued
system.cpu0.iq.FU_type_0::FloatMult                 0      0.00%     85.90% # Type of FU issued
system.cpu0.iq.FU_type_0::FloatMultAcc              0      0.00%     85.90% # Type of FU issued
system.cpu0.iq.FU_type_0::FloatDiv                  0      0.00%     85.90% # Type of FU issued
system.cpu0.iq.FU_type_0::FloatMisc                 0      0.00%     85.90% # Type of FU issued
system.cpu0.iq.FU_type_0::FloatSqrt                 0      0.00%     85.90% # Type of FU issued
system.cpu0.iq.FU_type_0::SimdAdd                   0      0.00%     85.90% # Type of FU issued
system.cpu0.iq.FU_type_0::SimdAddAcc                0      0.00%     85.90% # Type of FU issued
system.cpu0.iq.FU_type_0::SimdAlu                   0      0.00%     85.90% # Type of FU issued
system.cpu0.iq.FU_type_0::SimdCmp                   0      0.00%     85.90% # Type of FU issued
system.cpu0.iq.FU_type_0::SimdCvt                   0      0.00%     85.90% # Type of FU issued
system.cpu0.iq.FU_type_0::SimdMisc                  0      0.00%     85.90% # Type of FU issued
system.cpu0.iq.FU_type_0::SimdMult                  0      0.00%     85.90% # Type of FU issued
system.cpu0.iq.FU_type_0::SimdMultAcc               0      0.00%     85.90% # Type of FU issued
system.cpu0.iq.FU_type_0::SimdShift                 0      0.00%     85.90% # Type of FU issued
system.cpu0.iq.FU_type_0::SimdShiftAcc              0      0.00%     85.90% # Type of FU issued
system.cpu0.iq.FU_type_0::SimdSqrt                  0      0.00%     85.90% # Type of FU issued
system.cpu0.iq.FU_type_0::SimdFloatAdd              0      0.00%     85.90% # Type of FU issued
system.cpu0.iq.FU_type_0::SimdFloatAlu              0      0.00%     85.90% # Type of FU issued
system.cpu0.iq.FU_type_0::SimdFloatCmp              0      0.00%     85.90% # Type of FU issued
system.cpu0.iq.FU_type_0::SimdFloatCvt              0      0.00%     85.90% # Type of FU issued
system.cpu0.iq.FU_type_0::SimdFloatDiv              0      0.00%     85.90% # Type of FU issued
system.cpu0.iq.FU_type_0::SimdFloatMisc             0      0.00%     85.90% # Type of FU issued
system.cpu0.iq.FU_type_0::SimdFloatMult             0      0.00%     85.90% # Type of FU issued
system.cpu0.iq.FU_type_0::SimdFloatMultAcc            0      0.00%     85.90% # Type of FU issued
system.cpu0.iq.FU_type_0::SimdFloatSqrt             0      0.00%     85.90% # Type of FU issued
system.cpu0.iq.FU_type_0::MemRead             5009730      7.05%     92.95% # Type of FU issued
system.cpu0.iq.FU_type_0::MemWrite            2431505      3.42%     96.37% # Type of FU issued
system.cpu0.iq.FU_type_0::FloatMemRead        2577801      3.63%    100.00% # Type of FU issued
system.cpu0.iq.FU_type_0::FloatMemWrite          1465      0.00%    100.00% # Type of FU issued
system.cpu0.iq.FU_type_0::IprAccess                 0      0.00%    100.00% # Type of FU issued
system.cpu0.iq.FU_type_0::InstPrefetch              0      0.00%    100.00% # Type of FU issued
system.cpu0.iq.FU_type_0::total              71073738                       # Type of FU issued
system.cpu0.iq.rate                          2.327639                       # Inst issue rate
system.cpu0.iq.fu_busy_cnt                    1536400                       # FU busy when requested
system.cpu0.iq.fu_busy_rate                  0.021617                       # FU busy rate (busy events/executed inst)
system.cpu0.iq.int_inst_queue_reads         158827363                       # Number of integer instruction queue reads
system.cpu0.iq.int_inst_queue_writes        119121093                       # Number of integer instruction queue writes
system.cpu0.iq.int_inst_queue_wakeup_accesses     59682651                       # Number of integer instruction queue wakeup accesses
system.cpu0.iq.fp_inst_queue_reads           16055714                       # Number of floating instruction queue reads
system.cpu0.iq.fp_inst_queue_writes          19221938                       # Number of floating instruction queue writes
system.cpu0.iq.fp_inst_queue_wakeup_accesses      7114757                       # Number of floating instruction queue wakeup accesses
system.cpu0.iq.vec_inst_queue_reads                 0                       # Number of vector instruction queue reads
system.cpu0.iq.vec_inst_queue_writes                0                       # Number of vector instruction queue writes
system.cpu0.iq.vec_inst_queue_wakeup_accesses            0                       # Number of vector instruction queue wakeup accesses
system.cpu0.iq.int_alu_accesses              62649163                       # Number of integer alu accesses
system.cpu0.iq.fp_alu_accesses                8030090                       # Number of floating point alu accesses
system.cpu0.iq.vec_alu_accesses                     0                       # Number of vector alu accesses
system.cpu0.iew.lsq.thread0.forwLoads          205141                       # Number of loads that had data forwarded from stores
system.cpu0.iew.lsq.thread0.invAddrLoads            0                       # Number of loads ignored due to an invalid address
system.cpu0.iew.lsq.thread0.squashedLoads      5825357                       # Number of loads squashed
system.cpu0.iew.lsq.thread0.ignoredResponses         3406                       # Number of memory responses ignored because the instruction is squashed
system.cpu0.iew.lsq.thread0.memOrderViolation          270                       # Number of memory ordering violations
system.cpu0.iew.lsq.thread0.squashedStores      1540781                       # Number of stores squashed
system.cpu0.iew.lsq.thread0.invAddrSwpfs            0                       # Number of software prefetches ignored due to an invalid address
system.cpu0.iew.lsq.thread0.blockedLoads            0                       # Number of blocked loads due to partial load-store forwarding
system.cpu0.iew.lsq.thread0.rescheduledLoads         2987                       # Number of loads that were rescheduled
system.cpu0.iew.lsq.thread0.cacheBlocked            7                       # Number of times an access to memory failed due to the cache being blocked
system.cpu0.iew.iewIdleCycles                       0                       # Number of cycles IEW is idle
system.cpu0.iew.iewSquashCycles               1393242                       # Number of cycles IEW is squashing
system.cpu0.iew.iewBlockCycles                6243863                       # Number of cycles IEW is blocking
system.cpu0.iew.iewUnblockCycles                10237                       # Number of cycles IEW is unblocking
system.cpu0.iew.iewDispatchedInsts           89865372                       # Number of instructions dispatched to IQ
system.cpu0.iew.iewDispSquashedInsts            49521                       # Number of squashed instructions skipped by dispatch
system.cpu0.iew.iewDispLoadInsts              9492274                       # Number of dispatched load instructions
system.cpu0.iew.iewDispStoreInsts             3115755                       # Number of dispatched store instructions
system.cpu0.iew.iewDispNonSpecInsts             83807                       # Number of dispatched non-speculative instructions
system.cpu0.iew.iewIQFullEvents                  4286                       # Number of times the IQ has become full, causing a stall
system.cpu0.iew.iewLSQFullEvents                 4331                       # Number of times the LSQ has become full, causing a stall
system.cpu0.iew.memOrderViolationEvents           270                       # Number of memory order violations
system.cpu0.iew.predictedTakenIncorrect        409687                       # Number of branches that were predicted taken incorrectly
system.cpu0.iew.predictedNotTakenIncorrect      1337469                       # Number of branches that were predicted not taken incorrectly
system.cpu0.iew.branchMispredicts             1747156                       # Number of branch mispredicts detected at execute
system.cpu0.iew.iewExecutedInsts             67985661                       # Number of executed instructions
system.cpu0.iew.iewExecLoadInsts              6912749                       # Number of load instructions executed
system.cpu0.iew.iewExecSquashedInsts          3088069                       # Number of squashed instructions skipped in execute
system.cpu0.iew.exec_swp                            0                       # number of swp insts executed
system.cpu0.iew.exec_nop                            0                       # number of nop insts executed
system.cpu0.iew.exec_refs                     9146301                       # number of memory reference insts executed
system.cpu0.iew.exec_branches                 6228168                       # Number of branches executed
system.cpu0.iew.exec_stores                   2233552                       # Number of stores executed
system.cpu0.iew.exec_rate                    2.226506                       # Inst execution rate
system.cpu0.iew.wb_sent                      67361965                       # cumulative count of insts sent to commit
system.cpu0.iew.wb_count                     66797408                       # cumulative count of insts written-back
system.cpu0.iew.wb_producers                 49528676                       # num instructions producing a value
system.cpu0.iew.wb_consumers                 88178781                       # num instructions consuming a value
system.cpu0.iew.wb_rate                      2.187591                       # insts written-back per cycle
system.cpu0.iew.wb_fanout                    0.561685                       # average fanout of values written-back
system.cpu0.commit.commitSquashedInsts       48477672                       # The number of squashed insts skipped by commit
system.cpu0.commit.commitNonSpecStalls            109                       # The number of times commit has been forced to stall to communicate backwards
system.cpu0.commit.branchMispredicts          1393088                       # The number of times a branch was mispredicted
system.cpu0.commit.committed_per_cycle::samples     23148807                       # Number of insts commited each cycle
system.cpu0.commit.committed_per_cycle::mean     1.787907                       # Number of insts commited each cycle
system.cpu0.commit.committed_per_cycle::stdev     2.400093                       # Number of insts commited each cycle
system.cpu0.commit.committed_per_cycle::underflows            0      0.00%      0.00% # Number of insts commited each cycle
system.cpu0.commit.committed_per_cycle::0     10626579     45.91%     45.91% # Number of insts commited each cycle
system.cpu0.commit.committed_per_cycle::1      3085860     13.33%     59.24% # Number of insts commited each cycle
system.cpu0.commit.committed_per_cycle::2      3502233     15.13%     74.37% # Number of insts commited each cycle
system.cpu0.commit.committed_per_cycle::3      1832848      7.92%     82.28% # Number of insts commited each cycle
system.cpu0.commit.committed_per_cycle::4       926506      4.00%     86.29% # Number of insts commited each cycle
system.cpu0.commit.committed_per_cycle::5       780125      3.37%     89.66% # Number of insts commited each cycle
system.cpu0.commit.committed_per_cycle::6       321171      1.39%     91.04% # Number of insts commited each cycle
system.cpu0.commit.committed_per_cycle::7       322505      1.39%     92.44% # Number of insts commited each cycle
system.cpu0.commit.committed_per_cycle::8      1750980      7.56%    100.00% # Number of insts commited each cycle
system.cpu0.commit.committed_per_cycle::overflows            0      0.00%    100.00% # Number of insts commited each cycle
system.cpu0.commit.committed_per_cycle::min_value            0                       # Number of insts commited each cycle
system.cpu0.commit.committed_per_cycle::max_value            8                       # Number of insts commited each cycle
system.cpu0.commit.committed_per_cycle::total     23148807                       # Number of insts commited each cycle
system.cpu0.commit.committedInsts            18734381                       # Number of instructions committed
system.cpu0.commit.committedOps              41387920                       # Number of ops (including micro ops) committed
system.cpu0.commit.swp_count                        0                       # Number of s/w prefetches committed
system.cpu0.commit.refs                       5241887                       # Number of memory references committed
system.cpu0.commit.loads                      3666915                       # Number of loads committed
system.cpu0.commit.membars                         60                       # Number of memory barriers committed
system.cpu0.commit.branches                   4318921                       # Number of branches committed
system.cpu0.commit.vec_insts                        0                       # Number of committed Vector instructions.
system.cpu0.commit.fp_insts                   3217952                       # Number of committed floating point instructions.
system.cpu0.commit.int_insts                 38639885                       # Number of committed integer instructions.
system.cpu0.commit.function_calls              365080                       # Number of function calls committed.
system.cpu0.commit.op_class_0::No_OpClass       729672      1.76%      1.76% # Class of committed instruction
system.cpu0.commit.op_class_0::IntAlu        32949922     79.61%     81.38% # Class of committed instruction
system.cpu0.commit.op_class_0::IntMult           1072      0.00%     81.38% # Class of committed instruction
system.cpu0.commit.op_class_0::IntDiv           45509      0.11%     81.49% # Class of committed instruction
system.cpu0.commit.op_class_0::FloatAdd       2419858      5.85%     87.33% # Class of committed instruction
system.cpu0.commit.op_class_0::FloatCmp             0      0.00%     87.33% # Class of committed instruction
system.cpu0.commit.op_class_0::FloatCvt             0      0.00%     87.33% # Class of committed instruction
system.cpu0.commit.op_class_0::FloatMult            0      0.00%     87.33% # Class of committed instruction
system.cpu0.commit.op_class_0::FloatMultAcc            0      0.00%     87.33% # Class of committed instruction
system.cpu0.commit.op_class_0::FloatDiv             0      0.00%     87.33% # Class of committed instruction
system.cpu0.commit.op_class_0::FloatMisc            0      0.00%     87.33% # Class of committed instruction
system.cpu0.commit.op_class_0::FloatSqrt            0      0.00%     87.33% # Class of committed instruction
system.cpu0.commit.op_class_0::SimdAdd              0      0.00%     87.33% # Class of committed instruction
system.cpu0.commit.op_class_0::SimdAddAcc            0      0.00%     87.33% # Class of committed instruction
system.cpu0.commit.op_class_0::SimdAlu              0      0.00%     87.33% # Class of committed instruction
system.cpu0.commit.op_class_0::SimdCmp              0      0.00%     87.33% # Class of committed instruction
system.cpu0.commit.op_class_0::SimdCvt              0      0.00%     87.33% # Class of committed instruction
system.cpu0.commit.op_class_0::SimdMisc             0      0.00%     87.33% # Class of committed instruction
system.cpu0.commit.op_class_0::SimdMult             0      0.00%     87.33% # Class of committed instruction
system.cpu0.commit.op_class_0::SimdMultAcc            0      0.00%     87.33% # Class of committed instruction
system.cpu0.commit.op_class_0::SimdShift            0      0.00%     87.33% # Class of committed instruction
system.cpu0.commit.op_class_0::SimdShiftAcc            0      0.00%     87.33% # Class of committed instruction
system.cpu0.commit.op_class_0::SimdSqrt             0      0.00%     87.33% # Class of committed instruction
system.cpu0.commit.op_class_0::SimdFloatAdd            0      0.00%     87.33% # Class of committed instruction
system.cpu0.commit.op_class_0::SimdFloatAlu            0      0.00%     87.33% # Class of committed instruction
system.cpu0.commit.op_class_0::SimdFloatCmp            0      0.00%     87.33% # Class of committed instruction
system.cpu0.commit.op_class_0::SimdFloatCvt            0      0.00%     87.33% # Class of committed instruction
system.cpu0.commit.op_class_0::SimdFloatDiv            0      0.00%     87.33% # Class of committed instruction
system.cpu0.commit.op_class_0::SimdFloatMisc            0      0.00%     87.33% # Class of committed instruction
system.cpu0.commit.op_class_0::SimdFloatMult            0      0.00%     87.33% # Class of committed instruction
system.cpu0.commit.op_class_0::SimdFloatMultAcc            0      0.00%     87.33% # Class of committed instruction
system.cpu0.commit.op_class_0::SimdFloatSqrt            0      0.00%     87.33% # Class of committed instruction
system.cpu0.commit.op_class_0::MemRead        2878373      6.95%     94.29% # Class of committed instruction
system.cpu0.commit.op_class_0::MemWrite       1574972      3.81%     98.09% # Class of committed instruction
system.cpu0.commit.op_class_0::FloatMemRead       788542      1.91%    100.00% # Class of committed instruction
system.cpu0.commit.op_class_0::FloatMemWrite            0      0.00%    100.00% # Class of committed instruction
system.cpu0.commit.op_class_0::IprAccess            0      0.00%    100.00% # Class of committed instruction
system.cpu0.commit.op_class_0::InstPrefetch            0      0.00%    100.00% # Class of committed instruction
system.cpu0.commit.op_class_0::total         41387920                       # Class of committed instruction
system.cpu0.commit.bw_lim_events              1750980                       # number cycles where commit BW limit reached
system.cpu0.rob.rob_reads                   111263419                       # The number of ROB reads
system.cpu0.rob.rob_writes                  187260343                       # The number of ROB writes
system.cpu0.timesIdled                            110                       # Number of times that the entire CPU went into an idle state and unscheduled itself
system.cpu0.idleCycles                            817                       # Total number of cycles that the CPU has spent unscheduled due to idling
system.cpu0.committedInsts                   18734381                       # Number of Instructions Simulated
system.cpu0.committedOps                     41387920                       # Number of Ops (including micro ops) Simulated
system.cpu0.cpi                              1.629874                       # CPI: Cycles Per Instruction
system.cpu0.cpi_total                        1.629874                       # CPI: Total CPI of All Threads
system.cpu0.ipc                              0.613544                       # IPC: Instructions Per Cycle
system.cpu0.ipc_total                        0.613544                       # IPC: Total IPC of All Threads
system.cpu0.int_regfile_reads                86331243                       # number of integer regfile reads
system.cpu0.int_regfile_writes               51053753                       # number of integer regfile writes
system.cpu0.fp_regfile_reads                 11209366                       # number of floating regfile reads
system.cpu0.fp_regfile_writes                 6723388                       # number of floating regfile writes
system.cpu0.cc_regfile_reads                 36224460                       # number of cc regfile reads
system.cpu0.cc_regfile_writes                17871010                       # number of cc regfile writes
system.cpu0.misc_regfile_reads               21812470                       # number of misc regfile reads
system.cpu0.dcache.tags.pwrStateResidencyTicks::UNDEFINED  15267344125                       # Cumulative time (in ticks) in various power states
system.cpu0.dcache.tags.replacements            18235                       # number of replacements
system.cpu0.dcache.tags.tagsinuse                1024                       # Cycle average of tags in use
system.cpu0.dcache.tags.total_refs             468047                       # Total number of references to valid blocks.
system.cpu0.dcache.tags.sampled_refs            18235                       # Sample count of references to valid blocks.
system.cpu0.dcache.tags.avg_refs            25.667508                       # Average number of references to valid blocks.
system.cpu0.dcache.tags.warmup_cycle                0                       # Cycle when the warmup percentage was hit.
system.cpu0.dcache.tags.occ_blocks::cpu0.data         1024                       # Average occupied blocks per requestor
system.cpu0.dcache.tags.occ_percent::cpu0.data            1                       # Average percentage of cache occupancy
system.cpu0.dcache.tags.occ_percent::total            1                       # Average percentage of cache occupancy
system.cpu0.dcache.tags.occ_task_id_blocks::1024         1024                       # Occupied blocks per task id
system.cpu0.dcache.tags.age_task_id_blocks_1024::0           11                       # Occupied blocks per task id
system.cpu0.dcache.tags.age_task_id_blocks_1024::1          134                       # Occupied blocks per task id
system.cpu0.dcache.tags.age_task_id_blocks_1024::2          775                       # Occupied blocks per task id
system.cpu0.dcache.tags.age_task_id_blocks_1024::3           48                       # Occupied blocks per task id
system.cpu0.dcache.tags.age_task_id_blocks_1024::4           56                       # Occupied blocks per task id
system.cpu0.dcache.tags.occ_task_id_percent::1024            1                       # Percentage of cache occupancy per task id
system.cpu0.dcache.tags.tag_accesses         32986399                       # Number of tag accesses
system.cpu0.dcache.tags.data_accesses        32986399                       # Number of data accesses
system.cpu0.dcache.pwrStateResidencyTicks::UNDEFINED  15267344125                       # Cumulative time (in ticks) in various power states
system.cpu0.dcache.ReadReq_hits::cpu0.data      6643092                       # number of ReadReq hits
system.cpu0.dcache.ReadReq_hits::total        6643092                       # number of ReadReq hits
system.cpu0.dcache.WriteReq_hits::cpu0.data      1566319                       # number of WriteReq hits
system.cpu0.dcache.WriteReq_hits::total       1566319                       # number of WriteReq hits
system.cpu0.dcache.demand_hits::cpu0.data      8209411                       # number of demand (read+write) hits
system.cpu0.dcache.demand_hits::total         8209411                       # number of demand (read+write) hits
system.cpu0.dcache.overall_hits::cpu0.data      8209411                       # number of overall hits
system.cpu0.dcache.overall_hits::total        8209411                       # number of overall hits
system.cpu0.dcache.ReadReq_misses::cpu0.data        23541                       # number of ReadReq misses
system.cpu0.dcache.ReadReq_misses::total        23541                       # number of ReadReq misses
system.cpu0.dcache.WriteReq_misses::cpu0.data         9089                       # number of WriteReq misses
system.cpu0.dcache.WriteReq_misses::total         9089                       # number of WriteReq misses
system.cpu0.dcache.demand_misses::cpu0.data        32630                       # number of demand (read+write) misses
system.cpu0.dcache.demand_misses::total         32630                       # number of demand (read+write) misses
system.cpu0.dcache.overall_misses::cpu0.data        32630                       # number of overall misses
system.cpu0.dcache.overall_misses::total        32630                       # number of overall misses
system.cpu0.dcache.ReadReq_miss_latency::cpu0.data   1605252500                       # number of ReadReq miss cycles
system.cpu0.dcache.ReadReq_miss_latency::total   1605252500                       # number of ReadReq miss cycles
system.cpu0.dcache.WriteReq_miss_latency::cpu0.data    861833500                       # number of WriteReq miss cycles
system.cpu0.dcache.WriteReq_miss_latency::total    861833500                       # number of WriteReq miss cycles
system.cpu0.dcache.demand_miss_latency::cpu0.data   2467086000                       # number of demand (read+write) miss cycles
system.cpu0.dcache.demand_miss_latency::total   2467086000                       # number of demand (read+write) miss cycles
system.cpu0.dcache.overall_miss_latency::cpu0.data   2467086000                       # number of overall miss cycles
system.cpu0.dcache.overall_miss_latency::total   2467086000                       # number of overall miss cycles
system.cpu0.dcache.ReadReq_accesses::cpu0.data      6666633                       # number of ReadReq accesses(hits+misses)
system.cpu0.dcache.ReadReq_accesses::total      6666633                       # number of ReadReq accesses(hits+misses)
system.cpu0.dcache.WriteReq_accesses::cpu0.data      1575408                       # number of WriteReq accesses(hits+misses)
system.cpu0.dcache.WriteReq_accesses::total      1575408                       # number of WriteReq accesses(hits+misses)
system.cpu0.dcache.demand_accesses::cpu0.data      8242041                       # number of demand (read+write) accesses
system.cpu0.dcache.demand_accesses::total      8242041                       # number of demand (read+write) accesses
system.cpu0.dcache.overall_accesses::cpu0.data      8242041                       # number of overall (read+write) accesses
system.cpu0.dcache.overall_accesses::total      8242041                       # number of overall (read+write) accesses
system.cpu0.dcache.ReadReq_miss_rate::cpu0.data     0.003531                       # miss rate for ReadReq accesses
system.cpu0.dcache.ReadReq_miss_rate::total     0.003531                       # miss rate for ReadReq accesses
system.cpu0.dcache.WriteReq_miss_rate::cpu0.data     0.005769                       # miss rate for WriteReq accesses
[...]
system.l2.ReadCleanReq_miss_rate::cpu0.inst     0.000776                       # miss rate for ReadCleanReq accesses
system.l2.ReadCleanReq_miss_rate::total      0.000776                       # miss rate for ReadCleanReq accesses
system.l2.ReadSharedReq_miss_rate::cpu0.data     0.677513                       # miss rate for ReadSharedReq accesses
system.l2.ReadSharedReq_miss_rate::total     0.677513                       # miss rate for ReadSharedReq accesses
system.l2.demand_miss_rate::cpu0.inst        0.000776                       # miss rate for demand accesses
system.l2.demand_miss_rate::cpu0.data        0.820675                       # miss rate for demand accesses
system.l2.demand_miss_rate::total            0.766544                       # miss rate for demand accesses
system.l2.overall_miss_rate::cpu0.inst       0.000776                       # miss rate for overall accesses
system.l2.overall_miss_rate::cpu0.data       0.820675                       # miss rate for overall accesses
system.l2.overall_miss_rate::total           0.766544                       # miss rate for overall accesses
system.l2.ReadExReq_avg_miss_latency::cpu0.data 94903.521294                       # average ReadExReq miss latency
system.l2.ReadExReq_avg_miss_latency::total 94903.521294                       # average ReadExReq miss latency
system.l2.ReadCleanReq_avg_miss_latency::cpu0.inst        90000                       # average ReadCleanReq miss latency
system.l2.ReadCleanReq_avg_miss_latency::total        90000                       # average ReadCleanReq miss latency
system.l2.ReadSharedReq_avg_miss_latency::cpu0.data 106023.860345                       # average ReadSharedReq miss latency
system.l2.ReadSharedReq_avg_miss_latency::total 106023.860345                       # average ReadSharedReq miss latency
system.l2.demand_avg_miss_latency::cpu0.inst        90000                       # average overall miss latency
system.l2.demand_avg_miss_latency::cpu0.data 99777.447377                       # average overall miss latency
system.l2.demand_avg_miss_latency::total 99776.794067                       # average overall miss latency
system.l2.overall_avg_miss_latency::cpu0.inst        90000                       # average overall miss latency
system.l2.overall_avg_miss_latency::cpu0.data 99777.447377                       # average overall miss latency
system.l2.overall_avg_miss_latency::total 99776.794067                       # average overall miss latency
system.l2.blocked_cycles::no_mshrs                  0                       # number of cycles access was blocked
system.l2.blocked_cycles::no_targets                0                       # number of cycles access was blocked
system.l2.blocked::no_mshrs                         0                       # number of cycles access was blocked
system.l2.blocked::no_targets                       0                       # number of cycles access was blocked
system.l2.avg_blocked_cycles::no_mshrs            nan                       # average number of cycles each access was blocked
system.l2.avg_blocked_cycles::no_targets          nan                       # average number of cycles each access was blocked
system.l2.writebacks::writebacks                14107                       # number of writebacks
system.l2.writebacks::total                     14107                       # number of writebacks
system.l2.ReadExReq_mshr_misses::cpu0.data         8406                       # number of ReadExReq MSHR misses
system.l2.ReadExReq_mshr_misses::total           8406                       # number of ReadExReq MSHR misses
system.l2.ReadCleanReq_mshr_misses::cpu0.inst            1                       # number of ReadCleanReq MSHR misses
system.l2.ReadCleanReq_mshr_misses::total            1                       # number of ReadCleanReq MSHR misses
system.l2.ReadSharedReq_mshr_misses::cpu0.data         6559                       # number of ReadSharedReq MSHR misses
system.l2.ReadSharedReq_mshr_misses::total         6559                       # number of ReadSharedReq MSHR misses
system.l2.demand_mshr_misses::cpu0.inst             1                       # number of demand (read+write) MSHR misses
system.l2.demand_mshr_misses::cpu0.data         14965                       # number of demand (read+write) MSHR misses
system.l2.demand_mshr_misses::total             14966                       # number of demand (read+write) MSHR misses
system.l2.overall_mshr_misses::cpu0.inst            1                       # number of overall MSHR misses
system.l2.overall_mshr_misses::cpu0.data        14965                       # number of overall MSHR misses
system.l2.overall_mshr_misses::total            14966                       # number of overall MSHR misses
system.l2.ReadExReq_mshr_miss_latency::cpu0.data    713699000                       # number of ReadExReq MSHR miss cycles
system.l2.ReadExReq_mshr_miss_latency::total    713699000                       # number of ReadExReq MSHR miss cycles
system.l2.ReadCleanReq_mshr_miss_latency::cpu0.inst        80000                       # number of ReadCleanReq MSHR miss cycles
system.l2.ReadCleanReq_mshr_miss_latency::total        80000                       # number of ReadCleanReq MSHR miss cycles
system.l2.ReadSharedReq_mshr_miss_latency::cpu0.data    629820500                       # number of ReadSharedReq MSHR miss cycles
system.l2.ReadSharedReq_mshr_miss_latency::total    629820500                       # number of ReadSharedReq MSHR miss cycles
system.l2.demand_mshr_miss_latency::cpu0.inst        80000                       # number of demand (read+write) MSHR miss cycles
system.l2.demand_mshr_miss_latency::cpu0.data   1343519500                       # number of demand (read+write) MSHR miss cycles
system.l2.demand_mshr_miss_latency::total   1343599500                       # number of demand (read+write) MSHR miss cycles
system.l2.overall_mshr_miss_latency::cpu0.inst        80000                       # number of overall MSHR miss cycles
system.l2.overall_mshr_miss_latency::cpu0.data   1343519500                       # number of overall MSHR miss cycles
system.l2.overall_mshr_miss_latency::total   1343599500                       # number of overall MSHR miss cycles
system.l2.ReadExReq_mshr_miss_rate::cpu0.data     0.982698                       # mshr miss rate for ReadExReq accesses
system.l2.ReadExReq_mshr_miss_rate::total     0.982698                       # mshr miss rate for ReadExReq accesses
system.l2.ReadCleanReq_mshr_miss_rate::cpu0.inst     0.000776                       # mshr miss rate for ReadCleanReq accesses
system.l2.ReadCleanReq_mshr_miss_rate::total     0.000776                       # mshr miss rate for ReadCleanReq accesses
system.l2.ReadSharedReq_mshr_miss_rate::cpu0.data     0.677513                       # mshr miss rate for ReadSharedReq accesses
system.l2.ReadSharedReq_mshr_miss_rate::total     0.677513                       # mshr miss rate for ReadSharedReq accesses
system.l2.demand_mshr_miss_rate::cpu0.inst     0.000776                       # mshr miss rate for demand accesses
system.l2.demand_mshr_miss_rate::cpu0.data     0.820675                       # mshr miss rate for demand accesses
system.l2.demand_mshr_miss_rate::total       0.766544                       # mshr miss rate for demand accesses
system.l2.overall_mshr_miss_rate::cpu0.inst     0.000776                       # mshr miss rate for overall accesses
system.l2.overall_mshr_miss_rate::cpu0.data     0.820675                       # mshr miss rate for overall accesses
system.l2.overall_mshr_miss_rate::total      0.766544                       # mshr miss rate for overall accesses
system.l2.ReadExReq_avg_mshr_miss_latency::cpu0.data 84903.521294                       # average ReadExReq mshr miss latency
system.l2.ReadExReq_avg_mshr_miss_latency::total 84903.521294                       # average ReadExReq mshr miss latency
system.l2.ReadCleanReq_avg_mshr_miss_latency::cpu0.inst        80000                       # average ReadCleanReq mshr miss latency
system.l2.ReadCleanReq_avg_mshr_miss_latency::total        80000                       # average ReadCleanReq mshr miss latency
system.l2.ReadSharedReq_avg_mshr_miss_latency::cpu0.data 96023.860345                       # average ReadSharedReq mshr miss latency
system.l2.ReadSharedReq_avg_mshr_miss_latency::total 96023.860345                       # average ReadSharedReq mshr miss latency
system.l2.demand_avg_mshr_miss_latency::cpu0.inst        80000                       # average overall mshr miss latency
system.l2.demand_avg_mshr_miss_latency::cpu0.data 89777.447377                       # average overall mshr miss latency
system.l2.demand_avg_mshr_miss_latency::total 89776.794067                       # average overall mshr miss latency
system.l2.overall_avg_mshr_miss_latency::cpu0.inst        80000                       # average overall mshr miss latency
system.l2.overall_avg_mshr_miss_latency::cpu0.data 89777.447377                       # average overall mshr miss latency
system.l2.overall_avg_mshr_miss_latency::total 89776.794067                       # average overall mshr miss latency
system.membus.snoop_filter.tot_requests         29930                       # Total number of requests made to the snoop filter.
system.membus.snoop_filter.hit_single_requests        14964                       # Number of requests hitting in the snoop filter with a single holder of the requested data.
system.membus.snoop_filter.hit_multi_requests            0                       # Number of requests hitting in the snoop filter with multiple (>1) holders of the requested data.
system.membus.snoop_filter.tot_snoops               0                       # Total number of snoops made to the snoop filter.
system.membus.snoop_filter.hit_single_snoops            0                       # Number of snoops hitting in the snoop filter with a single holder of the requested data.
system.membus.snoop_filter.hit_multi_snoops            0                       # Number of snoops hitting in the snoop filter with multiple (>1) holders of the requested data.
system.membus.pwrStateResidencyTicks::UNDEFINED  15267344125                       # Cumulative time (in ticks) in various power states
system.membus.trans_dist::ReadResp               6560                       # Transaction distribution
system.membus.trans_dist::WritebackDirty        14107                       # Transaction distribution
system.membus.trans_dist::CleanEvict              857                       # Transaction distribution
system.membus.trans_dist::ReadExReq              8406                       # Transaction distribution
system.membus.trans_dist::ReadExResp             8406                       # Transaction distribution
system.membus.trans_dist::ReadSharedReq          6560                       # Transaction distribution
system.membus.pkt_count_system.l2.mem_side::system.mem_ctrls.port        44896                       # Packet count per connected master and slave (bytes)
system.membus.pkt_count_system.l2.mem_side::total        44896                       # Packet count per connected master and slave (bytes)
system.membus.pkt_count::total                  44896                       # Packet count per connected master and slave (bytes)
system.membus.pkt_size_system.l2.mem_side::system.mem_ctrls.port      1860672                       # Cumulative packet size per connected master and slave (bytes)
system.membus.pkt_size_system.l2.mem_side::total      1860672                       # Cumulative packet size per connected master and slave (bytes)
system.membus.pkt_size::total                 1860672                       # Cumulative packet size per connected master and slave (bytes)
system.membus.snoops                                0                       # Total snoops (count)
system.membus.snoopTraffic                          0                       # Total snoop traffic (bytes)
system.membus.snoop_fanout::samples             14966                       # Request fanout histogram
system.membus.snoop_fanout::mean                    0                       # Request fanout histogram
system.membus.snoop_fanout::stdev                   0                       # Request fanout histogram
system.membus.snoop_fanout::underflows              0      0.00%      0.00% # Request fanout histogram
system.membus.snoop_fanout::0                   14966    100.00%    100.00% # Request fanout histogram
system.membus.snoop_fanout::1                       0      0.00%    100.00% # Request fanout histogram
system.membus.snoop_fanout::overflows               0      0.00%    100.00% # Request fanout histogram
system.membus.snoop_fanout::min_value               0                       # Request fanout histogram
system.membus.snoop_fanout::max_value               0                       # Request fanout histogram
system.membus.snoop_fanout::total               14966                       # Request fanout histogram
system.membus.reqLayer8.occupancy            90012500                       # Layer occupancy (ticks)
system.membus.reqLayer8.utilization               0.6                       # Layer utilization (%)
system.membus.respLayer1.occupancy           81190250                       # Layer occupancy (ticks)
system.membus.respLayer1.utilization              0.5                       # Layer utilization (%)
system.tol2bus.snoop_filter.tot_requests        39083                       # Total number of requests made to the snoop filter.
system.tol2bus.snoop_filter.hit_single_requests        19522                       # Number of requests hitting in the snoop filter with a single holder of the requested data.
system.tol2bus.snoop_filter.hit_multi_requests           82                       # Number of requests hitting in the snoop filter with multiple (>1) holders of the requested data.
system.tol2bus.snoop_filter.tot_snoops              3                       # Total number of snoops made to the snoop filter.
system.tol2bus.snoop_filter.hit_single_snoops            3                       # Number of snoops hitting in the snoop filter with a single holder of the requested data.
system.tol2bus.snoop_filter.hit_multi_snoops            0                       # Number of snoops hitting in the snoop filter with multiple (>1) holders of the requested data.
system.tol2bus.pwrStateResidencyTicks::UNDEFINED  15267344125                       # Cumulative time (in ticks) in various power states
system.tol2bus.trans_dist::ReadResp             10988                       # Transaction distribution
system.tol2bus.trans_dist::WritebackDirty        29493                       # Transaction distribution
system.tol2bus.trans_dist::WritebackClean         1289                       # Transaction distribution
system.tol2bus.trans_dist::CleanEvict            3709                       # Transaction distribution
system.tol2bus.trans_dist::UpgradeReq              17                       # Transaction distribution
system.tol2bus.trans_dist::UpgradeResp             17                       # Transaction distribution
system.tol2bus.trans_dist::ReadExReq             8554                       # Transaction distribution
system.tol2bus.trans_dist::ReadExResp            8554                       # Transaction distribution
system.tol2bus.trans_dist::ReadCleanReq          1307                       # Transaction distribution
system.tol2bus.trans_dist::ReadSharedReq         9681                       # Transaction distribution
system.tol2bus.pkt_count_system.cpu0.icache.mem_side::system.l2.cpu_side         3885                       # Packet count per connected master and slave (bytes)
system.tol2bus.pkt_count_system.cpu0.dcache.mem_side::system.l2.cpu_side        54739                       # Packet count per connected master and slave (bytes)
system.tol2bus.pkt_count::total                 58624                       # Packet count per connected master and slave (bytes)
system.tol2bus.pkt_size_system.cpu0.icache.mem_side::system.l2.cpu_side       164992                       # Cumulative packet size per connected master and slave (bytes)
system.tol2bus.pkt_size_system.cpu0.dcache.mem_side::system.l2.cpu_side      2151744                       # Cumulative packet size per connected master and slave (bytes)
system.tol2bus.pkt_size::total                2316736                       # Cumulative packet size per connected master and slave (bytes)
system.tol2bus.snoops                           14985                       # Total snoops (count)
system.tol2bus.snoopTraffic                    904000                       # Total snoop traffic (bytes)
system.tol2bus.snoop_fanout::samples            34526                       # Request fanout histogram
system.tol2bus.snoop_fanout::mean            0.002404                       # Request fanout histogram
system.tol2bus.snoop_fanout::stdev           0.048972                       # Request fanout histogram
system.tol2bus.snoop_fanout::underflows             0      0.00%      0.00% # Request fanout histogram
system.tol2bus.snoop_fanout::0                  34443     99.76%     99.76% # Request fanout histogram
system.tol2bus.snoop_fanout::1                     83      0.24%    100.00% # Request fanout histogram
system.tol2bus.snoop_fanout::2                      0      0.00%    100.00% # Request fanout histogram
system.tol2bus.snoop_fanout::3                      0      0.00%    100.00% # Request fanout histogram
system.tol2bus.snoop_fanout::4                      0      0.00%    100.00% # Request fanout histogram
system.tol2bus.snoop_fanout::5                      0      0.00%    100.00% # Request fanout histogram
system.tol2bus.snoop_fanout::6                      0      0.00%    100.00% # Request fanout histogram
system.tol2bus.snoop_fanout::7                      0      0.00%    100.00% # Request fanout histogram
system.tol2bus.snoop_fanout::8                      0      0.00%    100.00% # Request fanout histogram
system.tol2bus.snoop_fanout::9                      0      0.00%    100.00% # Request fanout histogram
system.tol2bus.snoop_fanout::10                     0      0.00%    100.00% # Request fanout histogram
system.tol2bus.snoop_fanout::11                     0      0.00%    100.00% # Request fanout histogram
system.tol2bus.snoop_fanout::12                     0      0.00%    100.00% # Request fanout histogram
system.tol2bus.snoop_fanout::13                     0      0.00%    100.00% # Request fanout histogram
system.tol2bus.snoop_fanout::14                     0      0.00%    100.00% # Request fanout histogram
system.tol2bus.snoop_fanout::15                     0      0.00%    100.00% # Request fanout histogram
system.tol2bus.snoop_fanout::16                     0      0.00%    100.00% # Request fanout histogram
system.tol2bus.snoop_fanout::overflows              0      0.00%    100.00% # Request fanout histogram
system.tol2bus.snoop_fanout::min_value              0                       # Request fanout histogram
system.tol2bus.snoop_fanout::max_value              1                       # Request fanout histogram
system.tol2bus.snoop_fanout::total              34526                       # Request fanout histogram
system.tol2bus.reqLayer0.occupancy           36216500                       # Layer occupancy (ticks)
system.tol2bus.reqLayer0.utilization              0.2                       # Layer utilization (%)
system.tol2bus.respLayer0.occupancy           1960500                       # Layer occupancy (ticks)
system.tol2bus.respLayer0.utilization             0.0                       # Layer utilization (%)
system.tol2bus.respLayer1.occupancy          27361000                       # Layer occupancy (ticks)
system.tol2bus.respLayer1.utilization             0.2                       # Layer utilization (%)

---------- End Simulation Statistics   ----------
