
---------- Begin Simulation Statistics ----------
sim_seconds                                  0.015267                       # Number of seconds simulated
sim_ticks                                 15267344125                       # Number of ticks simulated
final_tick                               8076425042125                       # Number of ticks from beginning of simulation (restored from checkpoints and never reset)
sim_freq                                 1000000000000                       # Frequency of simulated ticks
host_inst_rate                               42324397                       # Simulator instruction rate (inst/s)
host_op_rate                                 79166674                       # Simulator op (including micro ops) rate (op/s)
host_tick_rate                              102901974                       # Simulator tick rate (ticks/s)
host_mem_usage                                2332528                       # Number of bytes of host memory used
host_seconds                                   148.37                       # Real time elapsed on the host
sim_insts                                  6279578797                       # Number of instructions simulated
sim_ops                                   11745788133                       # Number of ops (including micro ops) simulated
system.voltage_domain.voltage                       1                       # Voltage in Volts
system.clk_domain.clock                          1000                       # Clock period in ticks
system.mem_ctrls.pwrStateResidencyTicks::UNDEFINED  15267344125                       # Cumulative time (in ticks) in various power states
system.mem_ctrls.bytes_read::cpu0.inst            256                       # Number of bytes read from this memory
system.mem_ctrls.bytes_read::cpu0.data           1088                       # Number of bytes read from this memory
system.mem_ctrls.bytes_read::total               1344                       # Number of bytes read from this memory
system.mem_ctrls.bytes_inst_read::cpu0.inst          256                       # Number of instructions bytes read from this memory
system.mem_ctrls.bytes_inst_read::total           256                       # Number of instructions bytes read from this memory
system.mem_ctrls.num_reads::cpu0.inst               4                       # Number of read requests responded to by this memory
system.mem_ctrls.num_reads::cpu0.data              17                       # Number of read requests responded to by this memory
system.mem_ctrls.num_reads::total                  21                       # Number of read requests responded to by this memory
system.mem_ctrls.bw_read::cpu0.inst             16768                       # Total read bandwidth from this memory (bytes/s)
system.mem_ctrls.bw_read::cpu0.data             71263                       # Total read bandwidth from this memory (bytes/s)
system.mem_ctrls.bw_read::total                 88031                       # Total read bandwidth from this memory (bytes/s)
system.mem_ctrls.bw_inst_read::cpu0.inst        16768                       # Instruction read bandwidth from this memory (bytes/s)
system.mem_ctrls.bw_inst_read::total            16768                       # Instruction read bandwidth from this memory (bytes/s)
system.mem_ctrls.bw_total::cpu0.inst            16768                       # Total bandwidth to/from this memory (bytes/s)
system.mem_ctrls.bw_total::cpu0.data            71263                       # Total bandwidth to/from this memory (bytes/s)
system.mem_ctrls.bw_total::total                88031                       # Total bandwidth to/from this memory (bytes/s)
system.mem_ctrls.readReqs                          21                       # Number of read requests accepted
system.mem_ctrls.writeReqs                          0                       # Number of write requests accepted
system.mem_ctrls.readBursts                        21                       # Number of DRAM read bursts, including those serviced by the write queue
system.mem_ctrls.writeBursts                        0                       # Number of DRAM write bursts, including those merged in the write queue
system.mem_ctrls.bytesReadDRAM                   1344                       # Total number of bytes read from DRAM
system.mem_ctrls.bytesReadWrQ                       0                       # Total number of bytes read from write queue
system.mem_ctrls.bytesWritten                       0                       # Total number of bytes written to DRAM
system.mem_ctrls.bytesReadSys                    1344                       # Total read bytes from the system interface side
system.mem_ctrls.bytesWrittenSys                    0                       # Total written bytes from the system interface side
system.mem_ctrls.servicedByWrQ                      0                       # Number of DRAM read bursts serviced by the write queue
system.mem_ctrls.mergedWrBursts                     0                       # Number of DRAM write bursts merged with an existing one
system.mem_ctrls.neitherReadNorWriteReqs            0                       # Number of requests that are neither read nor write
system.mem_ctrls.perBankRdBursts::0                 0                       # Per bank write bursts
system.mem_ctrls.perBankRdBursts::1                 0                       # Per bank write bursts
system.mem_ctrls.perBankRdBursts::2                 1                       # Per bank write bursts
system.mem_ctrls.perBankRdBursts::3                 0                       # Per bank write bursts
system.mem_ctrls.perBankRdBursts::4                 0                       # Per bank write bursts
system.mem_ctrls.perBankRdBursts::5                 0                       # Per bank write bursts
system.mem_ctrls.perBankRdBursts::6                 9                       # Per bank write bursts
system.mem_ctrls.perBankRdBursts::7                 2                       # Per bank write bursts
system.mem_ctrls.perBankRdBursts::8                 0                       # Per bank write bursts
system.mem_ctrls.perBankRdBursts::9                 2                       # Per bank write bursts
system.mem_ctrls.perBankRdBursts::10                0                       # Per bank write bursts
system.mem_ctrls.perBankRdBursts::11                0                       # Per bank write bursts
system.mem_ctrls.perBankRdBursts::12                1                       # Per bank write bursts
system.mem_ctrls.perBankRdBursts::13                0                       # Per bank write bursts
system.mem_ctrls.perBankRdBursts::14                4                       # Per bank write bursts
system.mem_ctrls.perBankRdBursts::15                2                       # Per bank write bursts
system.mem_ctrls.perBankWrBursts::0                 0                       # Per bank write bursts
system.mem_ctrls.perBankWrBursts::1                 0                       # Per bank write bursts
system.mem_ctrls.perBankWrBursts::2                 0                       # Per bank write bursts
system.mem_ctrls.perBankWrBursts::3                 0                       # Per bank write bursts
system.mem_ctrls.perBankWrBursts::4                 0                       # Per bank write bursts
system.mem_ctrls.perBankWrBursts::5                 0                       # Per bank write bursts
system.mem_ctrls.perBankWrBursts::6                 0                       # Per bank write bursts
system.mem_ctrls.perBankWrBursts::7                 0                       # Per bank write bursts
system.mem_ctrls.perBankWrBursts::8                 0                       # Per bank write bursts
system.mem_ctrls.perBankWrBursts::9                 0                       # Per bank write bursts
system.mem_ctrls.perBankWrBursts::10                0                       # Per bank write bursts
system.mem_ctrls.perBankWrBursts::11                0                       # Per bank write bursts
system.mem_ctrls.perBankWrBursts::12                0                       # Per bank write bursts
system.mem_ctrls.perBankWrBursts::13                0                       # Per bank write bursts
system.mem_ctrls.perBankWrBursts::14                0                       # Per bank write bursts
system.mem_ctrls.perBankWrBursts::15                0                       # Per bank write bursts
system.mem_ctrls.numRdRetry                         0                       # Number of times read queue was full causing retry
system.mem_ctrls.numWrRetry                         0                       # Number of times write queue was full causing retry
system.mem_ctrls.totGap                   13643390500                       # Total gap between requests
system.mem_ctrls.readPktSize::0                     0                       # Read request sizes (log2)
system.mem_ctrls.readPktSize::1                     0                       # Read request sizes (log2)
system.mem_ctrls.readPktSize::2                     0                       # Read request sizes (log2)
system.mem_ctrls.readPktSize::3                     0                       # Read request sizes (log2)
system.mem_ctrls.readPktSize::4                     0                       # Read request sizes (log2)
system.mem_ctrls.readPktSize::5                     0                       # Read request sizes (log2)
system.mem_ctrls.readPktSize::6                    21                       # Read request sizes (log2)
system.mem_ctrls.writePktSize::0                    0                       # Write request sizes (log2)
system.mem_ctrls.writePktSize::1                    0                       # Write request sizes (log2)
system.mem_ctrls.writePktSize::2                    0                       # Write request sizes (log2)
system.mem_ctrls.writePktSize::3                    0                       # Write request sizes (log2)
system.mem_ctrls.writePktSize::4                    0                       # Write request sizes (log2)
system.mem_ctrls.writePktSize::5                    0                       # Write request sizes (log2)
system.mem_ctrls.writePktSize::6                    0                       # Write request sizes (log2)
system.mem_ctrls.rdQLenPdf::0                      18                       # What read queue length does an incoming req see
system.mem_ctrls.rdQLenPdf::1                       2                       # What read queue length does an incoming req see
system.mem_ctrls.rdQLenPdf::2                       1                       # What read queue length does an incoming req see
system.mem_ctrls.rdQLenPdf::3                       0                       # What read queue length does an incoming req see
system.mem_ctrls.rdQLenPdf::4                       0                       # What read queue length does an incoming req see
system.mem_ctrls.rdQLenPdf::5                       0                       # What read queue length does an incoming req see
system.mem_ctrls.rdQLenPdf::6                       0                       # What read queue length does an incoming req see
system.mem_ctrls.rdQLenPdf::7                       0                       # What read queue length does an incoming req see
system.mem_ctrls.rdQLenPdf::8                       0                       # What read queue length does an incoming req see
system.mem_ctrls.rdQLenPdf::9                       0                       # What read queue length does an incoming req see
system.mem_ctrls.rdQLenPdf::10                      0                       # What read queue length does an incoming req see
system.mem_ctrls.rdQLenPdf::11                      0                       # What read queue length does an incoming req see
system.mem_ctrls.rdQLenPdf::12                      0                       # What read queue length does an incoming req see
system.mem_ctrls.rdQLenPdf::13                      0                       # What read queue length does an incoming req see
system.mem_ctrls.rdQLenPdf::14                      0                       # What read queue length does an incoming req see
system.mem_ctrls.rdQLenPdf::15                      0                       # What read queue length does an incoming req see
system.mem_ctrls.rdQLenPdf::16                      0                       # What read queue length does an incoming req see
system.mem_ctrls.rdQLenPdf::17                      0                       # What read queue length does an incoming req see
system.mem_ctrls.rdQLenPdf::18                      0                       # What read queue length does an incoming req see
system.mem_ctrls.rdQLenPdf::19                      0                       # What read queue length does an incoming req see
system.mem_ctrls.rdQLenPdf::20                      0                       # What read queue length does an incoming req see
system.mem_ctrls.rdQLenPdf::21                      0                       # What read queue length does an incoming req see
system.mem_ctrls.rdQLenPdf::22                      0                       # What read queue length does an incoming req see
system.mem_ctrls.rdQLenPdf::23                      0                       # What read queue length does an incoming req see
system.mem_ctrls.rdQLenPdf::24                      0                       # What read queue length does an incoming req see
system.mem_ctrls.rdQLenPdf::25                      0                       # What read queue length does an incoming req see
system.mem_ctrls.rdQLenPdf::26                      0                       # What read queue length does an incoming req see
system.mem_ctrls.rdQLenPdf::27                      0                       # What read queue length does an incoming req see
system.mem_ctrls.rdQLenPdf::28                      0                       # What read queue length does an incoming req see
system.mem_ctrls.rdQLenPdf::29                      0                       # What read queue length does an incoming req see
system.mem_ctrls.rdQLenPdf::30                      0                       # What read queue length does an incoming req see
system.mem_ctrls.rdQLenPdf::31                      0                       # What read queue length does an incoming req see
system.mem_ctrls.wrQLenPdf::0                       0                       # What write queue length does an incoming req see
system.mem_ctrls.wrQLenPdf::1                       0                       # What write queue length does an incoming req see
system.mem_ctrls.wrQLenPdf::2                       0                       # What write queue length does an incoming req see
system.mem_ctrls.wrQLenPdf::3                       0                       # What write queue length does an incoming req see
system.mem_ctrls.wrQLenPdf::4                       0                       # What write queue length does an incoming req see
system.mem_ctrls.wrQLenPdf::5                       0                       # What write queue length does an incoming req see
system.mem_ctrls.wrQLenPdf::6                       0                       # What write queue length does an incoming req see
system.mem_ctrls.wrQLenPdf::7                       0                       # What write queue length does an incoming req see
system.mem_ctrls.wrQLenPdf::8                       0                       # What write queue length does an incoming req see
system.mem_ctrls.wrQLenPdf::9                       0                       # What write queue length does an incoming req see
system.mem_ctrls.wrQLenPdf::10                      0                       # What write queue length does an incoming req see
system.mem_ctrls.wrQLenPdf::11                      0                       # What write queue length does an incoming req see
system.mem_ctrls.wrQLenPdf::12                      0                       # What write queue length does an incoming req see
system.mem_ctrls.wrQLenPdf::13                      0                       # What write queue length does an incoming req see
system.mem_ctrls.wrQLenPdf::14                      0                       # What write queue length does an incoming req see
system.mem_ctrls.wrQLenPdf::15                      0                       # What write queue length does an incoming req see
system.mem_ctrls.wrQLenPdf::16                      0                       # What write queue length does an incoming req see
system.mem_ctrls.wrQLenPdf::17                      0                       # What write queue length does an incoming req see
system.mem_ctrls.wrQLenPdf::18                      0                       # What write queue length does an incoming req see
system.mem_ctrls.wrQLenPdf::19                      0                       # What write queue length does an incoming req see
system.mem_ctrls.wrQLenPdf::20                      0                       # What write queue length does an incoming req see
system.mem_ctrls.wrQLenPdf::21                      0                       # What write queue length does an incoming req see
system.mem_ctrls.wrQLenPdf::22                      0                       # What write queue length does an incoming req see
system.mem_ctrls.wrQLenPdf::23                      0                       # What write queue length does an incoming req see
system.mem_ctrls.wrQLenPdf::24                      0                       # What write queue length does an incoming req see
system.mem_ctrls.wrQLenPdf::25                      0                       # What write queue length does an incoming req see
system.mem_ctrls.wrQLenPdf::26                      0                       # What write queue length does an incoming req see
system.mem_ctrls.wrQLenPdf::27                      0                       # What write queue length does an incoming req see
system.mem_ctrls.wrQLenPdf::28                      0                       # What write queue length does an incoming req see
system.mem_ctrls.wrQLenPdf::29                      0                       # What write queue length does an incoming req see
system.mem_ctrls.wrQLenPdf::30                      0                       # What write queue length does an incoming req see
system.mem_ctrls.wrQLenPdf::31                      0                       # What write queue length does an incoming req see
system.mem_ctrls.wrQLenPdf::32                      0                       # What write queue length does an incoming req see
system.mem_ctrls.wrQLenPdf::33                      0                       # What write queue length does an incoming req see
system.mem_ctrls.wrQLenPdf::34                      0                       # What write queue length does an incoming req see
system.mem_ctrls.wrQLenPdf::35                      0                       # What write queue length does an incoming req see
system.mem_ctrls.wrQLenPdf::36                      0                       # What write queue length does an incoming req see
system.mem_ctrls.wrQLenPdf::37                      0                       # What write queue length does an incoming req see
system.mem_ctrls.wrQLenPdf::38                      0                       # What write queue length does an incoming req see
system.mem_ctrls.wrQLenPdf::39                      0                       # What write queue length does an incoming req see
system.mem_ctrls.wrQLenPdf::40                      0                       # What write queue length does an incoming req see
system.mem_ctrls.wrQLenPdf::41                      0                       # What write queue length does an incoming req see
system.mem_ctrls.wrQLenPdf::42                      0                       # What write queue length does an incoming req see
system.mem_ctrls.wrQLenPdf::43                      0                       # What write queue length does an incoming req see
system.mem_ctrls.wrQLenPdf::44                      0                       # What write queue length does an incoming req see
system.mem_ctrls.wrQLenPdf::45                      0                       # What write queue length does an incoming req see
system.mem_ctrls.wrQLenPdf::46                      0                       # What write queue length does an incoming req see
system.mem_ctrls.wrQLenPdf::47                      0                       # What write queue length does an incoming req see
system.mem_ctrls.wrQLenPdf::48                      0                       # What write queue length does an incoming req see
system.mem_ctrls.wrQLenPdf::49                      0                       # What write queue length does an incoming req see
system.mem_ctrls.wrQLenPdf::50                      0                       # What write queue length does an incoming req see
system.mem_ctrls.wrQLenPdf::51                      0                       # What write queue length does an incoming req see
system.mem_ctrls.wrQLenPdf::52                      0                       # What write queue length does an incoming req see
system.mem_ctrls.wrQLenPdf::53                      0                       # What write queue length does an incoming req see
system.mem_ctrls.wrQLenPdf::54                      0                       # What write queue length does an incoming req see
system.mem_ctrls.wrQLenPdf::55                      0                       # What write queue length does an incoming req see
system.mem_ctrls.wrQLenPdf::56                      0                       # What write queue length does an incoming req see
system.mem_ctrls.wrQLenPdf::57                      0                       # What write queue length does an incoming req see
system.mem_ctrls.wrQLenPdf::58                      0                       # What write queue length does an incoming req see
system.mem_ctrls.wrQLenPdf::59                      0                       # What write queue length does an incoming req see
system.mem_ctrls.wrQLenPdf::60                      0                       # What write queue length does an incoming req see
system.mem_ctrls.wrQLenPdf::61                      0                       # What write queue length does an incoming req see
system.mem_ctrls.wrQLenPdf::62                      0                       # What write queue length does an incoming req see
system.mem_ctrls.wrQLenPdf::63                      0                       # What write queue length does an incoming req see
system.mem_ctrls.bytesPerActivate::samples           19                       # Bytes accessed per row activation
system.mem_ctrls.bytesPerActivate::mean     70.736842                       # Bytes accessed per row activation
system.mem_ctrls.bytesPerActivate::gmean    67.809668                       # Bytes accessed per row activation
system.mem_ctrls.bytesPerActivate::stdev    29.365214                       # Bytes accessed per row activation
system.mem_ctrls.bytesPerActivate::64-79           18     94.74%     94.74% # Bytes accessed per row activation
system.mem_ctrls.bytesPerActivate::192-207            1      5.26%    100.00% # Bytes accessed per row activation
system.mem_ctrls.bytesPerActivate::total           19                       # Bytes accessed per row activation
system.mem_ctrls.totQLat                      9338250                       # Total ticks spent queuing
system.mem_ctrls.totMemAccLat                 9732000                       # Total ticks spent from burst creation until serviced by the DRAM
system.mem_ctrls.totBusLat                     105000                       # Total ticks spent in databus transfers
system.mem_ctrls.avgQLat                    444678.57                       # Average queueing delay per DRAM burst
system.mem_ctrls.avgBusLat                    5000.00                       # Average bus latency per DRAM burst
system.mem_ctrls.avgMemAccLat               463428.57                       # Average memory access latency per DRAM burst
system.mem_ctrls.avgRdBW                         0.09                       # Average DRAM read bandwidth in MiByte/s
system.mem_ctrls.avgWrBW                         0.00                       # Average achieved write bandwidth in MiByte/s
system.mem_ctrls.avgRdBWSys                      0.09                       # Average system read bandwidth in MiByte/s
system.mem_ctrls.avgWrBWSys                      0.00                       # Average system write bandwidth in MiByte/s
system.mem_ctrls.peakBW                      12800.00                       # Theoretical peak bandwidth in MiByte/s
system.mem_ctrls.busUtil                         0.00                       # Data bus utilization in percentage
system.mem_ctrls.busUtilRead                     0.00                       # Data bus utilization in percentage for reads
system.mem_ctrls.busUtilWrite                    0.00                       # Data bus utilization in percentage for writes
system.mem_ctrls.avgRdQLen                       1.28                       # Average read queue length when enqueuing
system.mem_ctrls.avgWrQLen                      18.00                       # Average write queue length when enqueuing
system.mem_ctrls.readRowHits                        2                       # Number of row buffer hits during reads
system.mem_ctrls.writeRowHits                       0                       # Number of row buffer hits during writes
system.mem_ctrls.readRowHitRate                  9.52                       # Row buffer hit rate for reads
system.mem_ctrls.writeRowHitRate                  nan                       # Row buffer hit rate for writes
system.mem_ctrls.avgGap                  649685261.90                       # Average gap between requests
system.mem_ctrls.pageHitRate                     9.52                       # Row buffer hit rate, read and write combined
system.mem_ctrls_0.actEnergy                    85680                       # Energy for activate commands per rank (pJ)
system.mem_ctrls_0.preEnergy                    45540                       # Energy for precharge commands per rank (pJ)
system.mem_ctrls_0.readEnergy                   85680                       # Energy for read commands per rank (pJ)
system.mem_ctrls_0.writeEnergy                      0                       # Energy for write commands per rank (pJ)
system.mem_ctrls_0.refreshEnergy         20283120.000000                       # Energy for refresh commands per rank (pJ)
system.mem_ctrls_0.actBackEnergy              3899940                       # Energy for active background per rank (pJ)
system.mem_ctrls_0.preBackEnergy              1397280                       # Energy for precharge background per rank (pJ)
system.mem_ctrls_0.actPowerDownEnergy        37586370                       # Energy for active power-down per rank (pJ)
system.mem_ctrls_0.prePowerDownEnergy        31708320                       # Energy for precharge power-down per rank (pJ)
system.mem_ctrls_0.selfRefreshEnergy       3627711240                       # Energy for self refresh per rank (pJ)
system.mem_ctrls_0.totalEnergy             3722803170                       # Total energy per rank (pJ)
system.mem_ctrls_0.averagePower            243.840916                       # Core power per rank (mW)
system.mem_ctrls_0.totalIdleTime          13282134750                       # Total Idle time Per DRAM Rank
system.mem_ctrls_0.memoryStateTime::IDLE      2970000                       # Time in different power states
system.mem_ctrls_0.memoryStateTime::REF       8646000                       # Time in different power states
system.mem_ctrls_0.memoryStateTime::SREF  15090150625                       # Time in different power states
system.mem_ctrls_0.memoryStateTime::PRE_PDN     82571500                       # Time in different power states
system.mem_ctrls_0.memoryStateTime::ACT        580750                       # Time in different power states
system.mem_ctrls_0.memoryStateTime::ACT_PDN     82425250                       # Time in different power states
system.mem_ctrls_1.actEnergy                    49980                       # Energy for activate commands per rank (pJ)
system.mem_ctrls_1.preEnergy                    26565                       # Energy for precharge commands per rank (pJ)
system.mem_ctrls_1.readEnergy                   64260                       # Energy for read commands per rank (pJ)
system.mem_ctrls_1.writeEnergy                      0                       # Energy for write commands per rank (pJ)
system.mem_ctrls_1.refreshEnergy         10448880.000000                       # Energy for refresh commands per rank (pJ)
system.mem_ctrls_1.actBackEnergy              2036040                       # Energy for active background per rank (pJ)
system.mem_ctrls_1.preBackEnergy               660480                       # Energy for precharge background per rank (pJ)
system.mem_ctrls_1.actPowerDownEnergy        20996520                       # Energy for active power-down per rank (pJ)
system.mem_ctrls_1.prePowerDownEnergy        16851360                       # Energy for precharge power-down per rank (pJ)
system.mem_ctrls_1.selfRefreshEnergy       3643856400                       # Energy for self refresh per rank (pJ)
system.mem_ctrls_1.totalEnergy             3694990485                       # Total energy per rank (pJ)
system.mem_ctrls_1.averagePower            242.019205                       # Core power per rank (mW)
system.mem_ctrls_1.totalIdleTime          10412609250                       # Total Idle time Per DRAM Rank
system.mem_ctrls_1.memoryStateTime::IDLE      1362000                       # Time in different power states
system.mem_ctrls_1.memoryStateTime::REF       4450000                       # Time in different power states
system.mem_ctrls_1.memoryStateTime::SREF  15171229125                       # Time in different power states
system.mem_ctrls_1.memoryStateTime::PRE_PDN     43882000                       # Time in different power states
system.mem_ctrls_1.memoryStateTime::ACT        375750                       # Time in different power states
system.mem_ctrls_1.memoryStateTime::ACT_PDN     46045250                       # Time in different power states
system.pwrStateResidencyTicks::UNDEFINED  15267344125                       # Cumulative time (in ticks) in various power states
system.cpu0.branchPred.lookups                6039841                       # Number of BP lookups
system.cpu0.branchPred.condPredicted          6039841                       # Number of conditional branches predicted
system.cpu0.branchPred.condIncorrect            30702                       # Number of conditional branches incorrect
system.cpu0.branchPred.BTBLookups             6002489                       # Number of BTB lookups
system.cpu0.branchPred.BTBHits                      0                       # Number of BTB hits
system.cpu0.branchPred.BTBCorrect                   0                       # Number of correct BTB predictions (this stat may not work properly.
system.cpu0.branchPred.BTBHitPct             0.000000                       # BTB Hit Percentage
system.cpu0.branchPred.usedRAS                  17179                       # Number of times the RAS was used to get a target.
system.cpu0.branchPred.RASInCorrect              3660                       # Number of incorrect RAS predictions.
system.cpu0.branchPred.indirectLookups        6002489                       # Number of indirect predictor lookups.
system.cpu0.branchPred.indirectHits           5834236                       # Number of indirect target hits.
system.cpu0.branchPred.indirectMisses          168253                       # Number of indirect misses.
system.cpu0.branchPredindirectMispredicted        21565                       # Number of mispredicted indirect branches.
system.cpu_voltage_domain.voltage                   1                       # Voltage in Volts
system.cpu_clk_domain.clock                       500                       # Clock period in ticks
system.cpu0.dtb.walker.pwrStateResidencyTicks::UNDEFINED  15267344125                       # Cumulative time (in ticks) in various power states
system.cpu0.dtb.rdAccesses                    1889817                       # TLB accesses on read requests
system.cpu0.dtb.wrAccesses                    5980953                       # TLB accesses on write requests
system.cpu0.dtb.rdMisses                         3667                       # TLB misses on read requests
system.cpu0.dtb.wrMisses                        12380                       # TLB misses on write requests
system.cpu0.apic_clk_domain.clock                8000                       # Clock period in ticks
system.cpu0.interrupts.pwrStateResidencyTicks::UNDEFINED  15267344125                       # Cumulative time (in ticks) in various power states
system.cpu0.itb.walker.pwrStateResidencyTicks::UNDEFINED  15267344125                       # Cumulative time (in ticks) in various power states
system.cpu0.itb.rdAccesses                          0                       # TLB accesses on read requests
system.cpu0.itb.wrAccesses                     246675                       # TLB accesses on write requests
system.cpu0.itb.rdMisses                            0                       # TLB misses on read requests
system.cpu0.itb.wrMisses                          478                       # TLB misses on write requests
system.cpu0.workload.numSyscalls                  258                       # Number of system calls
system.cpu0.pwrStateResidencyTicks::ON    15267344125                       # Cumulative time (in ticks) in various power states
system.cpu0.numCycles                        30534688                       # number of cpu cycles simulated
system.cpu0.numWorkItemsStarted                     0                       # number of work items this cpu started
system.cpu0.numWorkItemsCompleted                   0                       # number of work items this cpu completed
system.cpu0.fetch.icacheStallCycles            302931                       # Number of cycles fetch is stalled on an Icache miss
system.cpu0.fetch.Insts                      26786836                       # Number of instructions fetch has processed
system.cpu0.fetch.Branches                    6039841                       # Number of branches that fetch encountered
system.cpu0.fetch.predictedBranches           5851415                       # Number of branches that fetch has predicted taken
system.cpu0.fetch.Cycles                     30194152                       # Number of cycles fetch has run and was not squashing or blocked
system.cpu0.fetch.SquashCycles                  62914                       # Number of cycles fetch has spent squashing
system.cpu0.fetch.TlbCycles                         5                       # Number of cycles fetch has spent waiting for tlb
system.cpu0.fetch.MiscStallCycles                  88                       # Number of cycles fetch has spent waiting on interrupts, or bad addresses, or out of MSHRs
system.cpu0.fetch.PendingTrapStallCycles          493                       # Number of stall cycles due to pending traps
system.cpu0.fetch.CacheLines                   246556                       # Number of cache lines fetched
system.cpu0.fetch.IcacheSquashes                 9145                       # Number of outstanding Icache misses that were squashed
system.cpu0.fetch.ItlbSquashes                      3                       # Number of outstanding ITLB misses that were squashed
system.cpu0.fetch.rateDist::samples          30529126                       # Number of instructions fetched each cycle (Total)
system.cpu0.fetch.rateDist::mean             1.772799                       # Number of instructions fetched each cycle (Total)
system.cpu0.fetch.rateDist::stdev            3.185998                       # Number of instructions fetched each cycle (Total)
system.cpu0.fetch.rateDist::underflows              0      0.00%      0.00% # Number of instructions fetched each cycle (Total)
system.cpu0.fetch.rateDist::0                22519409     73.76%     73.76% # Number of instructions fetched each cycle (Total)
system.cpu0.fetch.rateDist::1                  214021      0.70%     74.46% # Number of instructions fetched each cycle (Total)
system.cpu0.fetch.rateDist::2                  229376      0.75%     75.22% # Number of instructions fetched each cycle (Total)
system.cpu0.fetch.rateDist::3                 1230609      4.03%     79.25% # Number of instructions fetched each cycle (Total)
system.cpu0.fetch.rateDist::4                  143307      0.47%     79.72% # Number of instructions fetched each cycle (Total)
system.cpu0.fetch.rateDist::5                   42393      0.14%     79.86% # Number of instructions fetched each cycle (Total)
system.cpu0.fetch.rateDist::6                   46750      0.15%     80.01% # Number of instructions fetched each cycle (Total)
system.cpu0.fetch.rateDist::7                  134366      0.44%     80.45% # Number of instructions fetched each cycle (Total)
system.cpu0.fetch.rateDist::8                 5968895     19.55%    100.00% # Number of instructions fetched each cycle (Total)
system.cpu0.fetch.rateDist::overflows               0      0.00%    100.00% # Number of instructions fetched each cycle (Total)
system.cpu0.fetch.rateDist::min_value               0                       # Number of instructions fetched each cycle (Total)
system.cpu0.fetch.rateDist::max_value               8                       # Number of instructions fetched each cycle (Total)
system.cpu0.fetch.rateDist::total            30529126                       # Number of instructions fetched each cycle (Total)
system.cpu0.fetch.branchRate                 0.197803                       # Number of branch fetches per cycle
system.cpu0.fetch.rate                       0.877259                       # Number of inst fetches per cycle
system.cpu0.decode.IdleCycles                 1909303                       # Number of cycles decode is idle
system.cpu0.decode.BlockedCycles             21790851                       # Number of cycles decode is blocked
system.cpu0.decode.RunCycles                  3078873                       # Number of cycles decode is running
system.cpu0.decode.UnblockCycles              3718642                       # Number of cycles decode is unblocking
system.cpu0.decode.SquashCycles                 31457                       # Number of cycles decode is squashing
system.cpu0.decode.DecodedInsts              53873702                       # Number of instructions handled by decode
system.cpu0.rename.SquashCycles                 31457                       # Number of cycles rename is squashing
system.cpu0.rename.IdleCycles                 3166468                       # Number of cycles rename is idle
system.cpu0.rename.BlockCycles                 185515                       # Number of cycles rename is blocking
system.cpu0.rename.serializeStallCycles         14803                       # count of cycles rename stalled for serializing inst
system.cpu0.rename.RunCycles                  5535960                       # Number of cycles rename is running
system.cpu0.rename.UnblockCycles             21594923                       # Number of cycles rename is unblocking
system.cpu0.rename.RenamedInsts              53724198                       # Number of instructions processed by rename
system.cpu0.rename.ROBFullEvents                 3516                       # Number of times rename has blocked due to ROB full
system.cpu0.rename.IQFullEvents                 87614                       # Number of times rename has blocked due to IQ full
system.cpu0.rename.LQFullEvents                 24997                       # Number of times rename has blocked due to LQ full
system.cpu0.rename.SQFullEvents              20252729                       # Number of times rename has blocked due to SQ full
system.cpu0.rename.RenamedOperands           68717297                       # Number of destination operands rename has renamed
system.cpu0.rename.RenameLookups            113403206                       # Number of register rename lookups that rename has made
system.cpu0.rename.int_rename_lookups        61834725                       # Number of integer rename lookups
system.cpu0.rename.fp_rename_lookups          1635662                       # Number of floating rename lookups
system.cpu0.rename.CommittedMaps             67460094                       # Number of HB maps that are committed
system.cpu0.rename.UndoneMaps                 1257167                       # Number of HB maps that are undone due to squashing
system.cpu0.rename.serializingInsts               588                       # count of serializing insts renamed
system.cpu0.rename.tempSerializingInsts           611                       # count of temporary serializing insts renamed
system.cpu0.rename.skidInsts                 22232520                       # count of insts added to the skid buffer
system.cpu0.memDep0.insertedLoads             1941283                       # Number of loads inserted to the mem dependence unit.
system.cpu0.memDep0.insertedStores            6018761                       # Number of stores inserted to the mem dependence unit.
system.cpu0.memDep0.conflictingLoads           112572                       # Number of conflicting loads.
system.cpu0.memDep0.conflictingStores          106112                       # Number of conflicting stores.
system.cpu0.iq.iqInstsAdded                  53427512                       # Number of instructions added to the IQ (excludes non-spec)
system.cpu0.iq.iqNonSpecInstsAdded               3555                       # Number of non-speculative instructions added to the IQ
system.cpu0.iq.iqInstsIssued                 53132604                       # Number of instructions issued
system.cpu0.iq.iqSquashedInstsIssued             9172                       # Number of squashed instructions issued
system.cpu0.iq.iqSquashedInstsExamined         803318                       # Number of squashed instructions iterated over during squash; mainly for profiling
system.cpu0.iq.iqSquashedOperandsExamined      1187751                       # Number of squashed operands that are examined and possibly removed from graph
system.cpu0.iq.iqSquashedNonSpecRemoved          2967                       # Number of squashed non-spec instructions that were removed
system.cpu0.iq.issued_per_cycle::samples     30529126                       # Number of insts issued each cycle
system.cpu0.iq.issued_per_cycle::mean        1.740391                       # Number of insts issued each cycle
system.cpu0.iq.issued_per_cycle::stdev       2.240356                       # Number of insts issued each cycle
system.cpu0.iq.issued_per_cycle::underflows            0      0.00%      0.00% # Number of insts issued each cycle
system.cpu0.iq.issued_per_cycle::0           16197330     53.06%     53.06% # Number of insts issued each cycle
system.cpu0.iq.issued_per_cycle::1            2297231      7.52%     60.58% # Number of insts issued each cycle
system.cpu0.iq.issued_per_cycle::2            2473634      8.10%     68.68% # Number of insts issued each cycle
system.cpu0.iq.issued_per_cycle::3            1653701      5.42%     74.10% # Number of insts issued each cycle
system.cpu0.iq.issued_per_cycle::4            1498916      4.91%     79.01% # Number of insts issued each cycle
system.cpu0.iq.issued_per_cycle::5            4708697     15.42%     94.43% # Number of insts issued each cycle
system.cpu0.iq.issued_per_cycle::6             644375      2.11%     96.54% # Number of insts issued each cycle
system.cpu0.iq.issued_per_cycle::7             920333      3.01%     99.56% # Number of insts issued each cycle
system.cpu0.iq.issued_per_cycle::8             134909      0.44%    100.00% # Number of insts issued each cycle
system.cpu0.iq.issued_per_cycle::overflows            0      0.00%    100.00% # Number of insts issued each cycle
system.cpu0.iq.issued_per_cycle::min_value            0                       # Number of insts issued each cycle
system.cpu0.iq.issued_per_cycle::max_value            8                       # Number of insts issued each cycle
system.cpu0.iq.issued_per_cycle::total       30529126                       # Number of insts issued each cycle
system.cpu0.iq.fu_full::No_OpClass                  0      0.00%      0.00% # attempts to use FU when none available
system.cpu0.iq.fu_full::IntAlu                 398568     94.48%     94.48% # attempts to use FU when none available
system.cpu0.iq.fu_full::IntMult                     0      0.00%     94.48% # attempts to use FU when none available
system.cpu0.iq.fu_full::IntDiv                      0      0.00%     94.48% # attempts to use FU when none available
system.cpu0.iq.fu_full::FloatAdd                 2410      0.57%     95.05% # attempts to use FU when none available
system.cpu0.iq.fu_full::FloatCmp                    0      0.00%     95.05% # attempts to use FU when none available
system.cpu0.iq.fu_full::FloatCvt                    0      0.00%     95.05% # attempts to use FU when none available
system.cpu0.iq.fu_full::FloatMult                   0      0.00%     95.05% # attempts to use FU when none available
system.cpu0.iq.fu_full::FloatMultAcc                0      0.00%     95.05% # attempts to use FU when none available
system.cpu0.iq.fu_full::FloatDiv                    0      0.00%     95.05% # attempts to use FU when none available
system.cpu0.iq.fu_full::FloatMisc                   0      0.00%     95.05% # attempts to use FU when none available
system.cpu0.iq.fu_full::FloatSqrt                   0      0.00%     95.05% # attempts to use FU when none available
system.cpu0.iq.fu_full::SimdAdd                     0      0.00%     95.05% # attempts to use FU when none available
system.cpu0.iq.fu_full::SimdAddAcc                  0      0.00%     95.05% # attempts to use FU when none available
system.cpu0.iq.fu_full::SimdAlu                     0      0.00%     95.05% # attempts to use FU when none available
system.cpu0.iq.fu_full::SimdCmp                     0      0.00%     95.05% # attempts to use FU when none available
system.cpu0.iq.fu_full::SimdCvt                     0      0.00%     95.05% # attempts to use FU when none available
system.cpu0.iq.fu_full::SimdMisc                    0      0.00%     95.05% # attempts to use FU when none available
system.cpu0.iq.fu_full::SimdMult                    0      0.00%     95.05% # attempts to use FU when none available
system.cpu0.iq.fu_full::SimdMultAcc                 0      0.00%     95.05% # attempts to use FU when none available
system.cpu0.iq.fu_full::SimdShift                   0      0.00%     95.05% # attempts to use FU when none available
system.cpu0.iq.fu_full::SimdShiftAcc                0      0.00%     95.05% # attempts to use FU when none available
system.cpu0.iq.fu_full::SimdSqrt                    0      0.00%     95.05% # attempts to use FU when none available
system.cpu0.iq.fu_full::SimdFloatAdd                0      0.00%     95.05% # attempts to use FU when none available
system.cpu0.iq.fu_full::SimdFloatAlu                0      0.00%     95.05% # attempts to use FU when none available
system.cpu0.iq.fu_full::SimdFloatCmp                0      0.00%     95.05% # attempts to use FU when none available
system.cpu0.iq.fu_full::SimdFloatCvt                0      0.00%     95.05% # attempts to use FU when none available
system.cpu0.iq.fu_full::SimdFloatDiv                0      0.00%     95.05% # attempts to use FU when none available
system.cpu0.iq.fu_full::SimdFloatMisc               0      0.00%     95.05% # attempts to use FU when none available
system.cpu0.iq.fu_full::SimdFloatMult               0      0.00%     95.05% # attempts to use FU when none available
system.cpu0.iq.fu_full::SimdFloatMultAcc            0      0.00%     95.05% # attempts to use FU when none available
system.cpu0.iq.fu_full::SimdFloatSqrt               0      0.00%     95.05% # attempts to use FU when none available
system.cpu0.iq.fu_full::MemRead                  3739      0.89%     95.94% # attempts to use FU when none available
system.cpu0.iq.fu_full::MemWrite                 1037      0.25%     96.19% # attempts to use FU when none available
system.cpu0.iq.fu_full::FloatMemRead            15104      3.58%     99.77% # attempts to use FU when none available
system.cpu0.iq.fu_full::FloatMemWrite             987      0.23%    100.00% # attempts to use FU when none available
system.cpu0.iq.fu_full::IprAccess                   0      0.00%    100.00% # attempts to use FU when none available
system.cpu0.iq.fu_full::InstPrefetch                0      0.00%    100.00% # attempts to use FU when none available
system.cpu0.iq.FU_type_0::No_OpClass            21285      0.04%      0.04% # Type of FU issued
system.cpu0.iq.FU_type_0::IntAlu             44779572     84.28%     84.32% # Type of FU issued
system.cpu0.iq.FU_type_0::IntMult                 429      0.00%     84.32% # Type of FU issued
system.cpu0.iq.FU_type_0::IntDiv                 1381      0.00%     84.32% # Type of FU issued
system.cpu0.iq.FU_type_0::FloatAdd             438622      0.83%     85.15% # Type of FU issued
system.cpu0.iq.FU_type_0::FloatCmp                  0      0.00%     85.15% # Type of FU issued
system.cpu0.iq.FU_type_0::FloatCvt                  0      0.00%     85.15% # Type of FU issued
system.cpu0.iq.FU_type_0::FloatMult                 0      0.00%     85.15% # Type of FU issued
system.cpu0.iq.FU_type_0::FloatMultAcc              0      0.00%     85.15% # Type of FU issued
system.cpu0.iq.FU_type_0::FloatDiv                  0      0.00%     85.15% # Type of FU issued
system.cpu0.iq.FU_type_0::FloatMisc                 0      0.00%     85.15% # Type of FU issued
system.cpu0.iq.FU_type_0::FloatSqrt                 0      0.00%     85.15% # Type of FU issued
system.cpu0.iq.FU_type_0::SimdAdd                   0      0.00%     85.15% # Type of FU issued
system.cpu0.iq.FU_type_0::SimdAddAcc                0      0.00%     85.15% # Type of FU issued
system.cpu0.iq.FU_type_0::SimdAlu                   0      0.00%     85.15% # Type of FU issued
system.cpu0.iq.FU_type_0::SimdCmp                   0      0.00%     85.15% # Type of FU issued
system.cpu0.iq.FU_type_0::SimdCvt                   0      0.00%     85.15% # Type of FU issued
system.cpu0.iq.FU_type_0::SimdMisc                  0      0.00%     85.15% # Type of FU issued
system.cpu0.iq.FU_type_0::SimdMult                  0      0.00%     85.15% # Type of FU issued
system.cpu0.iq.FU_type_0::SimdMultAcc               0      0.00%     85.15% # Type of FU issued
system.cpu0.iq.FU_type_0::SimdShift                 0      0.00%     85.15% # Type of FU issued
system.cpu0.iq.FU_type_0::SimdShiftAcc              0      0.00%     85.15% # Type of FU issued
system.cpu0.iq.FU_type_0::SimdSqrt                  0      0.00%     85.15% # Type of FU issued
system.cpu0.iq.FU_type_0::SimdFloatAdd              0      0.00%     85.15% # Type of FU issued
system.cpu0.iq.FU_type_0::SimdFloatAlu              0      0.00%     85.15% # Type of FU issued
system.cpu0.iq.FU_type_0::SimdFloatCmp              0      0.00%     85.15% # Type of FU issued
system.cpu0.iq.FU_type_0::SimdFloatCvt              0      0.00%     85.15% # Type of FU issued
system.cpu0.iq.FU_type_0::SimdFloatDiv              0      0.00%     85.15% # Type of FU issued
system.cpu0.iq.FU_type_0::SimdFloatMisc             0      0.00%     85.15% # Type of FU issued
system.cpu0.iq.FU_type_0::SimdFloatMult             0      0.00%     85.15% # Type of FU issued
system.cpu0.iq.FU_type_0::SimdFloatMultAcc            0      0.00%     85.15% # Type of FU issued
system.cpu0.iq.FU_type_0::SimdFloatSqrt             0      0.00%     85.15% # Type of FU issued
system.cpu0.iq.FU_type_0::MemRead             1649371      3.10%     88.25% # Type of FU issued
system.cpu0.iq.FU_type_0::MemWrite            5781819     10.88%     99.13% # Type of FU issued
system.cpu0.iq.FU_type_0::FloatMemRead         254073      0.48%     99.61% # Type of FU issued
system.cpu0.iq.FU_type_0::FloatMemWrite        206052      0.39%    100.00% # Type of FU issued
system.cpu0.iq.FU_type_0::IprAccess                 0      0.00%    100.00% # Type of FU issued
system.cpu0.iq.FU_type_0::InstPrefetch              0      0.00%    100.00% # Type of FU issued
system.cpu0.iq.FU_type_0::total              53132604                       # Type of FU issued
system.cpu0.iq.rate                          1.740074                       # Inst issue rate
system.cpu0.iq.fu_busy_cnt                     421845                       # FU busy when requested
system.cpu0.iq.fu_busy_rate                  0.007939                       # FU busy rate (busy events/executed inst)
system.cpu0.iq.int_inst_queue_reads         135213473                       # Number of integer instruction queue reads
system.cpu0.iq.int_inst_queue_writes         53131500                       # Number of integer instruction queue writes
system.cpu0.iq.int_inst_queue_wakeup_accesses     52036125                       # Number of integer instruction queue wakeup accesses
system.cpu0.iq.fp_inst_queue_reads            2011875                       # Number of floating instruction queue reads
system.cpu0.iq.fp_inst_queue_writes           1103820                       # Number of floating instruction queue writes
system.cpu0.iq.fp_inst_queue_wakeup_accesses       986721                       # Number of floating instruction queue wakeup accesses
system.cpu0.iq.vec_inst_queue_reads                 0                       # Number of vector instruction queue reads
system.cpu0.iq.vec_inst_queue_writes                0                       # Number of vector instruction queue writes
system.cpu0.iq.vec_inst_queue_wakeup_accesses            0                       # Number of vector instruction queue wakeup accesses
system.cpu0.iq.int_alu_accesses              52518170                       # Number of integer alu accesses
system.cpu0.iq.fp_alu_accesses                1014994                       # Number of floating point alu accesses
system.cpu0.iq.vec_alu_accesses                     0                       # Number of vector alu accesses
system.cpu0.iew.lsq.thread0.forwLoads            7630                       # Number of loads that had data forwarded from stores
system.cpu0.iew.lsq.thread0.invAddrLoads            0                       # Number of loads ignored due to an invalid address
system.cpu0.iew.lsq.thread0.squashedLoads       112958                       # Number of loads squashed
system.cpu0.iew.lsq.thread0.ignoredResponses          149                       # Number of memory responses ignored because the instruction is squashed
system.cpu0.iew.lsq.thread0.memOrderViolation          986                       # Number of memory ordering violations
system.cpu0.iew.lsq.thread0.squashedStores        60220                       # Number of stores squashed
system.cpu0.iew.lsq.thread0.invAddrSwpfs            0                       # Number of software prefetches ignored due to an invalid address
system.cpu0.iew.lsq.thread0.blockedLoads            0                       # Number of blocked loads due to partial load-store forwarding
system.cpu0.iew.lsq.thread0.rescheduledLoads           56                       # Number of loads that were rescheduled
system.cpu0.iew.lsq.thread0.cacheBlocked          574                       # Number of times an access to memory failed due to the cache being blocked
system.cpu0.iew.iewIdleCycles                       0                       # Number of cycles IEW is idle
system.cpu0.iew.iewSquashCycles                 31457                       # Number of cycles IEW is squashing
system.cpu0.iew.iewBlockCycles                  98056                       # Number of cycles IEW is blocking
system.cpu0.iew.iewUnblockCycles                75941                       # Number of cycles IEW is unblocking
system.cpu0.iew.iewDispatchedInsts           53431067                       # Number of instructions dispatched to IQ
system.cpu0.iew.iewDispSquashedInsts             3550                       # Number of squashed instructions skipped by dispatch
system.cpu0.iew.iewDispLoadInsts              1941283                       # Number of dispatched load instructions
system.cpu0.iew.iewDispStoreInsts             6018761                       # Number of dispatched store instructions
system.cpu0.iew.iewDispNonSpecInsts              1544                       # Number of dispatched non-speculative instructions
system.cpu0.iew.iewIQFullEvents                   617                       # Number of times the IQ has become full, causing a stall
system.cpu0.iew.iewLSQFullEvents                75194                       # Number of times the LSQ has become full, causing a stall
system.cpu0.iew.memOrderViolationEvents           986                       # Number of memory order violations
system.cpu0.iew.predictedTakenIncorrect          8520                       # Number of branches that were predicted taken incorrectly
system.cpu0.iew.predictedNotTakenIncorrect        29708                       # Number of branches that were predicted not taken incorrectly
system.cpu0.iew.branchMispredicts               38228                       # Number of branch mispredicts detected at execute
system.cpu0.iew.iewExecutedInsts             53057641                       # Number of executed instructions
system.cpu0.iew.iewExecLoadInsts              1888975                       # Number of load instructions executed
system.cpu0.iew.iewExecSquashedInsts            74960                       # Number of squashed instructions skipped in execute
system.cpu0.iew.exec_swp                            0                       # number of swp insts executed
system.cpu0.iew.exec_nop                            0                       # number of nop insts executed
system.cpu0.iew.exec_refs                     7869855                       # number of memory reference insts executed
system.cpu0.iew.exec_branches                 5919550                       # Number of branches executed
system.cpu0.iew.exec_stores                   5980880                       # Number of stores executed
system.cpu0.iew.exec_rate                    1.737619                       # Inst execution rate
system.cpu0.iew.wb_sent                      53038302                       # cumulative count of insts sent to commit
system.cpu0.iew.wb_count                     53022846                       # cumulative count of insts written-back
system.cpu0.iew.wb_producers                 38817749                       # num instructions producing a value
system.cpu0.iew.wb_consumers                 53919725                       # num instructions consuming a value
system.cpu0.iew.wb_rate                      1.736479                       # insts written-back per cycle
system.cpu0.iew.wb_fanout                    0.719917                       # average fanout of values written-back
system.cpu0.commit.commitSquashedInsts         803799                       # The number of squashed insts skipped by commit
system.cpu0.commit.commitNonSpecStalls            588                       # The number of times commit has been forced to stall to communicate backwards
system.cpu0.commit.branchMispredicts            30729                       # The number of times a branch was mispredicted
system.cpu0.commit.committed_per_cycle::samples     30403943                       # Number of insts commited each cycle
system.cpu0.commit.committed_per_cycle::mean     1.730951                       # Number of insts commited each cycle
system.cpu0.commit.committed_per_cycle::stdev     2.335626                       # Number of insts commited each cycle
system.cpu0.commit.committed_per_cycle::underflows            0      0.00%      0.00% # Number of insts commited each cycle
system.cpu0.commit.committed_per_cycle::0     16534851     54.38%     54.38% # Number of insts commited each cycle
system.cpu0.commit.committed_per_cycle::1      1715986      5.64%     60.03% # Number of insts commited each cycle
system.cpu0.commit.committed_per_cycle::2      1521411      5.00%     65.03% # Number of insts commited each cycle
system.cpu0.commit.committed_per_cycle::3      5169649     17.00%     82.04% # Number of insts commited each cycle
system.cpu0.commit.committed_per_cycle::4       364253      1.20%     83.23% # Number of insts commited each cycle
system.cpu0.commit.committed_per_cycle::5      2990445      9.84%     93.07% # Number of insts commited each cycle
system.cpu0.commit.committed_per_cycle::6       393391      1.29%     94.36% # Number of insts commited each cycle
system.cpu0.commit.committed_per_cycle::7       121263      0.40%     94.76% # Number of insts commited each cycle
system.cpu0.commit.committed_per_cycle::8      1592694      5.24%    100.00% # Number of insts commited each cycle
system.cpu0.commit.committed_per_cycle::overflows            0      0.00%    100.00% # Number of insts commited each cycle
system.cpu0.commit.committed_per_cycle::min_value            0                       # Number of insts commited each cycle
system.cpu0.commit.committed_per_cycle::max_value            8                       # Number of insts commited each cycle
system.cpu0.commit.committed_per_cycle::total     30403943                       # Number of insts commited each cycle
system.cpu0.commit.committedInsts            25950921                       # Number of instructions committed
system.cpu0.commit.committedOps              52627731                       # Number of ops (including micro ops) committed
system.cpu0.commit.swp_count                        0                       # Number of s/w prefetches committed
system.cpu0.commit.refs                       7786864                       # Number of memory references committed
system.cpu0.commit.loads                      1828325                       # Number of loads committed
system.cpu0.commit.membars                        220                       # Number of memory barriers committed
system.cpu0.commit.branches                   5889055                       # Number of branches committed
system.cpu0.commit.vec_insts                        0                       # Number of committed Vector instructions.
system.cpu0.commit.fp_insts                    968274                       # Number of committed floating point instructions.
system.cpu0.commit.int_insts                 52110114                       # Number of committed integer instructions.
system.cpu0.commit.function_calls                5409                       # Number of function calls committed.
system.cpu0.commit.op_class_0::No_OpClass        12158      0.02%      0.02% # Class of committed instruction
system.cpu0.commit.op_class_0::IntAlu        44398772     84.36%     84.39% # Class of committed instruction
system.cpu0.commit.op_class_0::IntMult            338      0.00%     84.39% # Class of committed instruction
system.cpu0.commit.op_class_0::IntDiv            1156      0.00%     84.39% # Class of committed instruction
system.cpu0.commit.op_class_0::FloatAdd        428443      0.81%     85.20% # Class of committed instruction
system.cpu0.commit.op_class_0::FloatCmp             0      0.00%     85.20% # Class of committed instruction
system.cpu0.commit.op_class_0::FloatCvt             0      0.00%     85.20% # Class of committed instruction
system.cpu0.commit.op_class_0::FloatMult            0      0.00%     85.20% # Class of committed instruction
system.cpu0.commit.op_class_0::FloatMultAcc            0      0.00%     85.20% # Class of committed instruction
system.cpu0.commit.op_class_0::FloatDiv             0      0.00%     85.20% # Class of committed instruction
system.cpu0.commit.op_class_0::FloatMisc            0      0.00%     85.20% # Class of committed instruction
system.cpu0.commit.op_class_0::FloatSqrt            0      0.00%     85.20% # Class of committed instruction
system.cpu0.commit.op_class_0::SimdAdd              0      0.00%     85.20% # Class of committed instruction
system.cpu0.commit.op_class_0::SimdAddAcc            0      0.00%     85.20% # Class of committed instruction
system.cpu0.commit.op_class_0::SimdAlu              0      0.00%     85.20% # Class of committed instruction
system.cpu0.commit.op_class_0::SimdCmp              0      0.00%     85.20% # Class of committed instruction
system.cpu0.commit.op_class_0::SimdCvt              0      0.00%     85.20% # Class of committed instruction
system.cpu0.commit.op_class_0::SimdMisc             0      0.00%     85.20% # Class of committed instruction
system.cpu0.commit.op_class_0::SimdMult             0      0.00%     85.20% # Class of committed instruction
system.cpu0.commit.op_class_0::SimdMultAcc            0      0.00%     85.20% # Class of committed instruction
system.cpu0.commit.op_class_0::SimdShift            0      0.00%     85.20% # Class of committed instruction
system.cpu0.commit.op_class_0::SimdShiftAcc            0      0.00%     85.20% # Class of committed instruction
system.cpu0.commit.op_class_0::SimdSqrt             0      0.00%     85.20% # Class of committed instruction
system.cpu0.commit.op_class_0::SimdFloatAdd            0      0.00%     85.20% # Class of committed instruction
system.cpu0.commit.op_class_0::SimdFloatAlu            0      0.00%     85.20% # Class of committed instruction
system.cpu0.commit.op_class_0::SimdFloatCmp            0      0.00%     85.20% # Class of committed instruction
system.cpu0.commit.op_class_0::SimdFloatCvt            0      0.00%     85.20% # Class of committed instruction
system.cpu0.commit.op_class_0::SimdFloatDiv            0      0.00%     85.20% # Class of committed instruction
system.cpu0.commit.op_class_0::SimdFloatMisc            0      0.00%     85.20% # Class of committed instruction
system.cpu0.commit.op_class_0::SimdFloatMult            0      0.00%     85.20% # Class of committed instruction
system.cpu0.commit.op_class_0::SimdFloatMultAcc            0      0.00%     85.20% # Class of committed instruction
system.cpu0.commit.op_class_0::SimdFloatSqrt            0      0.00%     85.20% # Class of committed instruction
system.cpu0.commit.op_class_0::MemRead        1585379      3.01%     88.22% # Class of committed instruction
system.cpu0.commit.op_class_0::MemWrite       5754628     10.93%     99.15% # Class of committed instruction
system.cpu0.commit.op_class_0::FloatMemRead       242946      0.46%     99.61% # Class of committed instruction
system.cpu0.commit.op_class_0::FloatMemWrite       203911      0.39%    100.00% # Class of committed instruction
system.cpu0.commit.op_class_0::IprAccess            0      0.00%    100.00% # Class of committed instruction
system.cpu0.commit.op_class_0::InstPrefetch            0      0.00%    100.00% # Class of committed instruction
system.cpu0.commit.op_class_0::total         52627731                       # Class of committed instruction
system.cpu0.commit.bw_lim_events              1592694                       # number cycles where commit BW limit reached
system.cpu0.rob.rob_reads                    82242779                       # The number of ROB reads
system.cpu0.rob.rob_writes                  106990796                       # The number of ROB writes
system.cpu0.timesIdled                            877                       # Number of times that the entire CPU went into an idle state and unscheduled itself
system.cpu0.idleCycles                           5562                       # Total number of cycles that the CPU has spent unscheduled due to idling
system.cpu0.committedInsts                   25950921                       # Number of Instructions Simulated
system.cpu0.committedOps                     52627731                       # Number of Ops (including micro ops) Simulated
system.cpu0.cpi                              1.176632                       # CPI: Cycles Per Instruction
system.cpu0.cpi_total                        1.176632                       # CPI: Total CPI of All Threads
system.cpu0.ipc                              0.849883                       # IPC: Instructions Per Cycle
system.cpu0.ipc_total                        0.849883                       # IPC: Total IPC of All Threads
system.cpu0.int_regfile_reads                60763770                       # number of integer regfile reads
system.cpu0.int_regfile_writes               40339008                       # number of integer regfile writes
system.cpu0.fp_regfile_reads                  1524955                       # number of floating regfile reads
system.cpu0.fp_regfile_writes                  776909                       # number of floating regfile writes
system.cpu0.cc_regfile_reads                 29528250                       # number of cc regfile reads
system.cpu0.cc_regfile_writes                26801204                       # number of cc regfile writes
system.cpu0.misc_regfile_reads               19743341                       # number of misc regfile reads
system.cpu0.dcache.tags.pwrStateResidencyTicks::UNDEFINED  15267344125                       # Cumulative time (in ticks) in various power states
system.cpu0.dcache.tags.replacements           732468                       # number of replacements
system.cpu0.dcache.tags.tagsinuse                1024                       # Cycle average of tags in use
system.cpu0.dcache.tags.total_refs            7097789                       # Total number of references to valid blocks.
system.cpu0.dcache.tags.sampled_refs           732468                       # Sample count of references to valid blocks.
system.cpu0.dcache.tags.avg_refs             9.690238                       # Average number of references to valid blocks.
system.cpu0.dcache.tags.warmup_cycle                0                       # Cycle when the warmup percentage was hit.
system.cpu0.dcache.tags.occ_blocks::cpu0.data         1024                       # Average occupied blocks per requestor
system.cpu0.dcache.tags.occ_percent::cpu0.data            1                       # Average percentage of cache occupancy
system.cpu0.dcache.tags.occ_percent::total            1                       # Average percentage of cache occupancy
system.cpu0.dcache.tags.occ_task_id_blocks::1024         1024                       # Occupied blocks per task id
system.cpu0.dcache.tags.age_task_id_blocks_1024::0          577                       # Occupied blocks per task id
system.cpu0.dcache.tags.age_task_id_blocks_1024::1          447                       # Occupied blocks per task id
system.cpu0.dcache.tags.occ_task_id_percent::1024            1                       # Percentage of cache occupancy per task id
system.cpu0.dcache.tags.tag_accesses         32082372                       # Number of tag accesses
system.cpu0.dcache.tags.data_accesses        32082372                       # Number of data accesses
system.cpu0.dcache.pwrStateResidencyTicks::UNDEFINED  15267344125                       # Cumulative time (in ticks) in various power states
system.cpu0.dcache.ReadReq_hits::cpu0.data      1864869                       # number of ReadReq hits
system.cpu0.dcache.ReadReq_hits::total        1864869                       # number of ReadReq hits
system.cpu0.dcache.WriteReq_hits::cpu0.data      5232915                       # number of WriteReq hits
system.cpu0.dcache.WriteReq_hits::total       5232915                       # number of WriteReq hits
system.cpu0.dcache.demand_hits::cpu0.data      7097784                       # number of demand (read+write) hits
system.cpu0.dcache.demand_hits::total         7097784                       # number of demand (read+write) hits
system.cpu0.dcache.overall_hits::cpu0.data      7097784                       # number of overall hits
system.cpu0.dcache.overall_hits::total        7097784                       # number of overall hits
system.cpu0.dcache.ReadReq_misses::cpu0.data        14011                       # number of ReadReq misses
system.cpu0.dcache.ReadReq_misses::total        14011                       # number of ReadReq misses
system.cpu0.dcache.WriteReq_misses::cpu0.data       725681                       # number of WriteReq misses
system.cpu0.dcache.WriteReq_misses::total       725681                       # number of WriteReq misses
system.cpu0.dcache.demand_misses::cpu0.data       739692                       # number of demand (read+write) misses
system.cpu0.dcache.demand_misses::total        739692                       # number of demand (read+write) misses
system.cpu0.dcache.overall_misses::cpu0.data       739692                       # number of overall misses
system.cpu0.dcache.overall_misses::total       739692                       # number of overall misses
system.cpu0.dcache.ReadReq_miss_latency::cpu0.data    169299000                       # number of ReadReq miss cycles
system.cpu0.dcache.ReadReq_miss_latency::total    169299000                       # number of ReadReq miss cycles
system.cpu0.dcache.WriteReq_miss_latency::cpu0.data   9438554000                       # number of WriteReq miss cycles
system.cpu0.dcache.WriteReq_miss_latency::total   9438554000                       # number of WriteReq miss cycles
system.cpu0.dcache.demand_miss_latency::cpu0.data   9607853000                       # number of demand (read+write) miss cycles
system.cpu0.dcache.demand_miss_latency::total   9607853000                       # number of demand (read+write) miss cycles
system.cpu0.dcache.overall_miss_latency::cpu0.data   9607853000                       # number of overall miss cycles
system.cpu0.dcache.overall_miss_latency::total   9607853000                       # number of overall miss cycles
system.cpu0.dcache.ReadReq_accesses::cpu0.data      1878880                       # number of ReadReq accesses(hits+misses)
system.cpu0.dcache.ReadReq_accesses::total      1878880                       # number of ReadReq accesses(hits+misses)
system.cpu0.dcache.WriteReq_accesses::cpu0.data      5958596                       # number of WriteReq accesses(hits+misses)
system.cpu0.dcache.WriteReq_accesses::total      5958596                       # number of WriteReq accesses(hits+misses)
system.cpu0.dcache.demand_accesses::cpu0.data      7837476                       # number of demand (read+write) accesses
system.cpu0.dcache.demand_accesses::total      7837476                       # number of demand (read+write) accesses
system.cpu0.dcache.overall_accesses::cpu0.data      7837476                       # number of overall (read+write) accesses
system.cpu0.dcache.overall_accesses::total      7837476                       # number of overall (read+write) accesses
system.cpu0.dcache.ReadReq_miss_rate::cpu0.data     0.007457                       # miss rate for ReadReq accesses
system.cpu0.dcache.ReadReq_miss_rate::total     0.007457                       # miss rate for ReadReq accesses
system.cpu0.dcache.WriteReq_miss_rate::cpu0.data     0.121787                       # miss rate for WriteReq accesses
system.cpu0.dcache.WriteReq_miss_rate::total     0.121787                       # miss rate for WriteReq accesses
system.cpu0.dcache.demand_miss_rate::cpu0.data     0.094379                       # miss rate for demand accesses
system.cpu0.dcache.demand_miss_rate::total     0.094379                       # miss rate for demand accesses
system.cpu0.dcache.overall_miss_rate::cpu0.data     0.094379                       # miss rate for overall accesses
system.cpu0.dcache.overall_miss_rate::total     0.094379                       # miss rate for overall accesses
system.cpu0.dcache.ReadReq_avg_miss_latency::cpu0.data 12083.291699                       # average ReadReq miss latency
system.cpu0.dcache.ReadReq_avg_miss_latency::total 12083.291699                       # average ReadReq miss latency
system.cpu0.dcache.WriteReq_avg_miss_latency::cpu0.data 13006.478053                       # average WriteReq miss latency
system.cpu0.dcache.WriteReq_avg_miss_latency::total 13006.478053                       # average WriteReq miss latency
system.cpu0.dcache.demand_avg_miss_latency::cpu0.data 12988.991364                       # average overall miss latency
system.cpu0.dcache.demand_avg_miss_latency::total 12988.991364                       # average overall miss latency
system.cpu0.dcache.overall_avg_miss_latency::cpu0.data 12988.991364                       # average overall miss latency
system.cpu0.dcache.overall_avg_miss_latency::total 12988.991364                       # average overall miss latency
system.cpu0.dcache.blocked_cycles::no_mshrs         2204                       # number of cycles access was blocked
system.cpu0.dcache.blocked_cycles::no_targets            0                       # number of cycles access was blocked
system.cpu0.dcache.blocked::no_mshrs              286                       # number of cycles access was blocked
system.cpu0.dcache.blocked::no_targets              0                       # number of cycles access was blocked
system.cpu0.dcache.avg_blocked_cycles::no_mshrs     7.706294                       # average number of cycles each access was blocked
system.cpu0.dcache.avg_blocked_cycles::no_targets          nan                       # average number of cycles each access was blocked
system.cpu0.dcache.writebacks::writebacks       728007                       # number of writebacks
system.cpu0.dcache.writebacks::total           728007                       # number of writebacks
system.cpu0.dcache.ReadReq_mshr_hits::cpu0.data         7204                       # number of ReadReq MSHR hits
system.cpu0.dcache.ReadReq_mshr_hits::total         7204                       # number of ReadReq MSHR hits
system.cpu0.dcache.WriteReq_mshr_hits::cpu0.data           18                       # number of WriteReq MSHR hits
system.cpu0.dcache.WriteReq_mshr_hits::total           18                       # number of WriteReq MSHR hits
system.cpu0.dcache.demand_mshr_hits::cpu0.data         7222                       # number of demand (read+write) MSHR hits
system.cpu0.dcache.demand_mshr_hits::total         7222                       # number of demand (read+write) MSHR hits
system.cpu0.dcache.overall_mshr_hits::cpu0.data         7222                       # number of overall MSHR hits
system.cpu0.dcache.overall_mshr_hits::total         7222                       # number of overall MSHR hits
system.cpu0.dcache.ReadReq_mshr_misses::cpu0.data         6807                       # number of ReadReq MSHR misses
system.cpu0.dcache.ReadReq_mshr_misses::total         6807                       # number of ReadReq MSHR misses
system.cpu0.dcache.WriteReq_mshr_misses::cpu0.data       725663                       # number of WriteReq MSHR misses
system.cpu0.dcache.WriteReq_mshr_misses::total       725663                       # number of WriteReq MSHR misses
system.cpu0.dcache.demand_mshr_misses::cpu0.data       732470                       # number of demand (read+write) MSHR misses
system.cpu0.dcache.demand_mshr_misses::total       732470                       # number of demand (read+write) MSHR misses
system.cpu0.dcache.overall_mshr_misses::cpu0.data       732470                       # number of overall MSHR misses
system.cpu0.dcache.overall_mshr_misses::total       732470                       # number of overall MSHR misses
system.cpu0.dcache.ReadReq_mshr_miss_latency::cpu0.data     88314500                       # number of ReadReq MSHR miss cycles
system.cpu0.dcache.ReadReq_mshr_miss_latency::total     88314500                       # number of ReadReq MSHR miss cycles
system.cpu0.dcache.WriteReq_mshr_miss_latency::cpu0.data   8712695000                       # number of WriteReq MSHR miss cycles
system.cpu0.dcache.WriteReq_mshr_miss_latency::total   8712695000                       # number of WriteReq MSHR miss cycles
[...]
system.l2.overall_accesses::total              735332                       # number of overall (read+write) accesses
system.l2.ReadExReq_miss_rate::cpu0.data     0.000010                       # miss rate for ReadExReq accesses
system.l2.ReadExReq_miss_rate::total         0.000010                       # miss rate for ReadExReq accesses
system.l2.ReadCleanReq_miss_rate::cpu0.inst     0.001396                       # miss rate for ReadCleanReq accesses
system.l2.ReadCleanReq_miss_rate::total      0.001396                       # miss rate for ReadCleanReq accesses
system.l2.ReadSharedReq_miss_rate::cpu0.data     0.001469                       # miss rate for ReadSharedReq accesses
system.l2.ReadSharedReq_miss_rate::total     0.001469                       # miss rate for ReadSharedReq accesses
system.l2.demand_miss_rate::cpu0.inst        0.001396                       # miss rate for demand accesses
system.l2.demand_miss_rate::cpu0.data        0.000023                       # miss rate for demand accesses
system.l2.demand_miss_rate::total            0.000029                       # miss rate for demand accesses
system.l2.overall_miss_rate::cpu0.inst       0.001396                       # miss rate for overall accesses
system.l2.overall_miss_rate::cpu0.data       0.000023                       # miss rate for overall accesses
system.l2.overall_miss_rate::total           0.000029                       # miss rate for overall accesses
system.l2.ReadExReq_avg_miss_latency::cpu0.data 613714.285714                       # average ReadExReq miss latency
system.l2.ReadExReq_avg_miss_latency::total 613714.285714                       # average ReadExReq miss latency
system.l2.ReadCleanReq_avg_miss_latency::cpu0.inst       482875                       # average ReadCleanReq miss latency
system.l2.ReadCleanReq_avg_miss_latency::total       482875                       # average ReadCleanReq miss latency
system.l2.ReadSharedReq_avg_miss_latency::cpu0.data       458500                       # average ReadSharedReq miss latency
system.l2.ReadSharedReq_avg_miss_latency::total       458500                       # average ReadSharedReq miss latency
system.l2.demand_avg_miss_latency::cpu0.inst       482875                       # average overall miss latency
system.l2.demand_avg_miss_latency::cpu0.data 522411.764706                       # average overall miss latency
system.l2.demand_avg_miss_latency::total 514880.952381                       # average overall miss latency
system.l2.overall_avg_miss_latency::cpu0.inst       482875                       # average overall miss latency
system.l2.overall_avg_miss_latency::cpu0.data 522411.764706                       # average overall miss latency
system.l2.overall_avg_miss_latency::total 514880.952381                       # average overall miss latency
system.l2.blocked_cycles::no_mshrs                  0                       # number of cycles access was blocked
system.l2.blocked_cycles::no_targets                0                       # number of cycles access was blocked
system.l2.blocked::no_mshrs                         0                       # number of cycles access was blocked
system.l2.blocked::no_targets                       0                       # number of cycles access was blocked
system.l2.avg_blocked_cycles::no_mshrs            nan                       # average number of cycles each access was blocked
system.l2.avg_blocked_cycles::no_targets          nan                       # average number of cycles each access was blocked
system.l2.ReadExReq_mshr_misses::cpu0.data            7                       # number of ReadExReq MSHR misses
system.l2.ReadExReq_mshr_misses::total              7                       # number of ReadExReq MSHR misses
system.l2.ReadCleanReq_mshr_misses::cpu0.inst            4                       # number of ReadCleanReq MSHR misses
system.l2.ReadCleanReq_mshr_misses::total            4                       # number of ReadCleanReq MSHR misses
system.l2.ReadSharedReq_mshr_misses::cpu0.data           10                       # number of ReadSharedReq MSHR misses
system.l2.ReadSharedReq_mshr_misses::total           10                       # number of ReadSharedReq MSHR misses
system.l2.demand_mshr_misses::cpu0.inst             4                       # number of demand (read+write) MSHR misses
system.l2.demand_mshr_misses::cpu0.data            17                       # number of demand (read+write) MSHR misses
system.l2.demand_mshr_misses::total                21                       # number of demand (read+write) MSHR misses
system.l2.overall_mshr_misses::cpu0.inst            4                       # number of overall MSHR misses
system.l2.overall_mshr_misses::cpu0.data           17                       # number of overall MSHR misses
system.l2.overall_mshr_misses::total               21                       # number of overall MSHR misses
system.l2.ReadExReq_mshr_miss_latency::cpu0.data      4226000                       # number of ReadExReq MSHR miss cycles
system.l2.ReadExReq_mshr_miss_latency::total      4226000                       # number of ReadExReq MSHR miss cycles
system.l2.ReadCleanReq_mshr_miss_latency::cpu0.inst      1891500                       # number of ReadCleanReq MSHR miss cycles
system.l2.ReadCleanReq_mshr_miss_latency::total      1891500                       # number of ReadCleanReq MSHR miss cycles
system.l2.ReadSharedReq_mshr_miss_latency::cpu0.data      4485000                       # number of ReadSharedReq MSHR miss cycles
system.l2.ReadSharedReq_mshr_miss_latency::total      4485000                       # number of ReadSharedReq MSHR miss cycles
system.l2.demand_mshr_miss_latency::cpu0.inst      1891500                       # number of demand (read+write) MSHR miss cycles
system.l2.demand_mshr_miss_latency::cpu0.data      8711000                       # number of demand (read+write) MSHR miss cycles
system.l2.demand_mshr_miss_latency::total     10602500                       # number of demand (read+write) MSHR miss cycles
system.l2.overall_mshr_miss_latency::cpu0.inst      1891500                       # number of overall MSHR miss cycles
system.l2.overall_mshr_miss_latency::cpu0.data      8711000                       # number of overall MSHR miss cycles
system.l2.overall_mshr_miss_latency::total     10602500                       # number of overall MSHR miss cycles
system.l2.ReadExReq_mshr_miss_rate::cpu0.data     0.000010                       # mshr miss rate for ReadExReq accesses
system.l2.ReadExReq_mshr_miss_rate::total     0.000010                       # mshr miss rate for ReadExReq accesses
system.l2.ReadCleanReq_mshr_miss_rate::cpu0.inst     0.001396                       # mshr miss rate for ReadCleanReq accesses
system.l2.ReadCleanReq_mshr_miss_rate::total     0.001396                       # mshr miss rate for ReadCleanReq accesses
system.l2.ReadSharedReq_mshr_miss_rate::cpu0.data     0.001469                       # mshr miss rate for ReadSharedReq accesses
system.l2.ReadSharedReq_mshr_miss_rate::total     0.001469                       # mshr miss rate for ReadSharedReq accesses
system.l2.demand_mshr_miss_rate::cpu0.inst     0.001396                       # mshr miss rate for demand accesses
system.l2.demand_mshr_miss_rate::cpu0.data     0.000023                       # mshr miss rate for demand accesses
system.l2.demand_mshr_miss_rate::total       0.000029                       # mshr miss rate for demand accesses
system.l2.overall_mshr_miss_rate::cpu0.inst     0.001396                       # mshr miss rate for overall accesses
system.l2.overall_mshr_miss_rate::cpu0.data     0.000023                       # mshr miss rate for overall accesses
system.l2.overall_mshr_miss_rate::total      0.000029                       # mshr miss rate for overall accesses
system.l2.ReadExReq_avg_mshr_miss_latency::cpu0.data 603714.285714                       # average ReadExReq mshr miss latency
system.l2.ReadExReq_avg_mshr_miss_latency::total 603714.285714                       # average ReadExReq mshr miss latency
system.l2.ReadCleanReq_avg_mshr_miss_latency::cpu0.inst       472875                       # average ReadCleanReq mshr miss latency
system.l2.ReadCleanReq_avg_mshr_miss_latency::total       472875                       # average ReadCleanReq mshr miss latency
system.l2.ReadSharedReq_avg_mshr_miss_latency::cpu0.data       448500                       # average ReadSharedReq mshr miss latency
system.l2.ReadSharedReq_avg_mshr_miss_latency::total       448500                       # average ReadSharedReq mshr miss latency
system.l2.demand_avg_mshr_miss_latency::cpu0.inst       472875                       # average overall mshr miss latency
system.l2.demand_avg_mshr_miss_latency::cpu0.data 512411.764706                       # average overall mshr miss latency
system.l2.demand_avg_mshr_miss_latency::total 504880.952381                       # average overall mshr miss latency
system.l2.overall_avg_mshr_miss_latency::cpu0.inst       472875                       # average overall mshr miss latency
system.l2.overall_avg_mshr_miss_latency::cpu0.data 512411.764706                       # average overall mshr miss latency
system.l2.overall_avg_mshr_miss_latency::total 504880.952381                       # average overall mshr miss latency
system.membus.snoop_filter.tot_requests            45                       # Total number of requests made to the snoop filter.
system.membus.snoop_filter.hit_single_requests           24                       # Number of requests hitting in the snoop filter with a single holder of the requested data.
system.membus.snoop_filter.hit_multi_requests            0                       # Number of requests hitting in the snoop filter with multiple (>1) holders of the requested data.
system.membus.snoop_filter.tot_snoops               0                       # Total number of snoops made to the snoop filter.
system.membus.snoop_filter.hit_single_snoops            0                       # Number of snoops hitting in the snoop filter with a single holder of the requested data.
system.membus.snoop_filter.hit_multi_snoops            0                       # Number of snoops hitting in the snoop filter with multiple (>1) holders of the requested data.
system.membus.pwrStateResidencyTicks::UNDEFINED  15267344125                       # Cumulative time (in ticks) in various power states
system.membus.trans_dist::ReadResp                 14                       # Transaction distribution
system.membus.trans_dist::CleanEvict               24                       # Transaction distribution
system.membus.trans_dist::ReadExReq                 7                       # Transaction distribution
system.membus.trans_dist::ReadExResp                7                       # Transaction distribution
system.membus.trans_dist::ReadSharedReq            14                       # Transaction distribution
system.membus.pkt_count_system.l2.mem_side::system.mem_ctrls.port           66                       # Packet count per connected master and slave (bytes)
system.membus.pkt_count_system.l2.mem_side::total           66                       # Packet count per connected master and slave (bytes)
system.membus.pkt_count::total                     66                       # Packet count per connected master and slave (bytes)
system.membus.pkt_size_system.l2.mem_side::system.mem_ctrls.port         1344                       # Cumulative packet size per connected master and slave (bytes)
system.membus.pkt_size_system.l2.mem_side::total         1344                       # Cumulative packet size per connected master and slave (bytes)
system.membus.pkt_size::total                    1344                       # Cumulative packet size per connected master and slave (bytes)
system.membus.snoops                                0                       # Total snoops (count)
system.membus.snoopTraffic                          0                       # Total snoop traffic (bytes)
system.membus.snoop_fanout::samples                21                       # Request fanout histogram
system.membus.snoop_fanout::mean                    0                       # Request fanout histogram
system.membus.snoop_fanout::stdev                   0                       # Request fanout histogram
system.membus.snoop_fanout::underflows              0      0.00%      0.00% # Request fanout histogram
system.membus.snoop_fanout::0                      21    100.00%    100.00% # Request fanout histogram
system.membus.snoop_fanout::1                       0      0.00%    100.00% # Request fanout histogram
system.membus.snoop_fanout::overflows               0      0.00%    100.00% # Request fanout histogram
system.membus.snoop_fanout::min_value               0                       # Request fanout histogram
system.membus.snoop_fanout::max_value               0                       # Request fanout histogram
system.membus.snoop_fanout::total                  21                       # Request fanout histogram
system.membus.reqLayer8.occupancy               50500                       # Layer occupancy (ticks)
system.membus.reqLayer8.utilization               0.0                       # Layer utilization (%)
system.membus.respLayer1.occupancy             114000                       # Layer occupancy (ticks)
system.membus.respLayer1.utilization              0.0                       # Layer utilization (%)
system.tol2bus.snoop_filter.tot_requests      1470671                       # Total number of requests made to the snoop filter.
system.tol2bus.snoop_filter.hit_single_requests       735334                       # Number of requests hitting in the snoop filter with a single holder of the requested data.
system.tol2bus.snoop_filter.hit_multi_requests          327                       # Number of requests hitting in the snoop filter with multiple (>1) holders of the requested data.
system.tol2bus.snoop_filter.tot_snoops              0                       # Total number of snoops made to the snoop filter.
system.tol2bus.snoop_filter.hit_single_snoops            0                       # Number of snoops hitting in the snoop filter with a single holder of the requested data.
system.tol2bus.snoop_filter.hit_multi_snoops            0                       # Number of snoops hitting in the snoop filter with multiple (>1) holders of the requested data.
system.tol2bus.pwrStateResidencyTicks::UNDEFINED  15267344125                       # Cumulative time (in ticks) in various power states
system.tol2bus.trans_dist::ReadResp              9675                       # Transaction distribution
system.tol2bus.trans_dist::WritebackDirty       728007                       # Transaction distribution
system.tol2bus.trans_dist::WritebackClean         2866                       # Transaction distribution
system.tol2bus.trans_dist::CleanEvict            4485                       # Transaction distribution
system.tol2bus.trans_dist::UpgradeReq               2                       # Transaction distribution
system.tol2bus.trans_dist::UpgradeResp              2                       # Transaction distribution
system.tol2bus.trans_dist::ReadExReq           725660                       # Transaction distribution
system.tol2bus.trans_dist::ReadExResp          725661                       # Transaction distribution
system.tol2bus.trans_dist::ReadCleanReq          2868                       # Transaction distribution
system.tol2bus.trans_dist::ReadSharedReq         6807                       # Transaction distribution
system.tol2bus.pkt_count_system.cpu0.icache.mem_side::system.l2.cpu_side         8599                       # Packet count per connected master and slave (bytes)
system.tol2bus.pkt_count_system.cpu0.dcache.mem_side::system.l2.cpu_side      2197407                       # Packet count per connected master and slave (bytes)
system.tol2bus.pkt_count::total               2206006                       # Packet count per connected master and slave (bytes)
system.tol2bus.pkt_size_system.cpu0.icache.mem_side::system.l2.cpu_side       366784                       # Cumulative packet size per connected master and slave (bytes)
system.tol2bus.pkt_size_system.cpu0.dcache.mem_side::system.l2.cpu_side     93470400                       # Cumulative packet size per connected master and slave (bytes)
system.tol2bus.pkt_size::total               93837184                       # Cumulative packet size per connected master and slave (bytes)
system.tol2bus.snoops                              27                       # Total snoops (count)
system.tol2bus.snoopTraffic                       192                       # Total snoop traffic (bytes)
system.tol2bus.snoop_fanout::samples           735361                       # Request fanout histogram
system.tol2bus.snoop_fanout::mean            0.000445                       # Request fanout histogram
system.tol2bus.snoop_fanout::stdev           0.021083                       # Request fanout histogram
system.tol2bus.snoop_fanout::underflows             0      0.00%      0.00% # Request fanout histogram
system.tol2bus.snoop_fanout::0                 735034     99.96%     99.96% # Request fanout histogram
system.tol2bus.snoop_fanout::1                    327      0.04%    100.00% # Request fanout histogram
system.tol2bus.snoop_fanout::2                      0      0.00%    100.00% # Request fanout histogram
system.tol2bus.snoop_fanout::3                      0      0.00%    100.00% # Request fanout histogram
system.tol2bus.snoop_fanout::4                      0      0.00%    100.00% # Request fanout histogram
system.tol2bus.snoop_fanout::5                      0      0.00%    100.00% # Request fanout histogram
system.tol2bus.snoop_fanout::6                      0      0.00%    100.00% # Request fanout histogram
system.tol2bus.snoop_fanout::7                      0      0.00%    100.00% # Request fanout histogram
system.tol2bus.snoop_fanout::8                      0      0.00%    100.00% # Request fanout histogram
system.tol2bus.snoop_fanout::9                      0      0.00%    100.00% # Request fanout histogram
system.tol2bus.snoop_fanout::10                     0      0.00%    100.00% # Request fanout histogram
system.tol2bus.snoop_fanout::11                     0      0.00%    100.00% # Request fanout histogram
system.tol2bus.snoop_fanout::12                     0      0.00%    100.00% # Request fanout histogram
system.tol2bus.snoop_fanout::13                     0      0.00%    100.00% # Request fanout histogram
system.tol2bus.snoop_fanout::14                     0      0.00%    100.00% # Request fanout histogram
system.tol2bus.snoop_fanout::15                     0      0.00%    100.00% # Request fanout histogram
system.tol2bus.snoop_fanout::16                     0      0.00%    100.00% # Request fanout histogram
system.tol2bus.snoop_fanout::overflows              0      0.00%    100.00% # Request fanout histogram
system.tol2bus.snoop_fanout::min_value              0                       # Request fanout histogram
system.tol2bus.snoop_fanout::max_value              1                       # Request fanout histogram
system.tol2bus.snoop_fanout::total             735361                       # Request fanout histogram
system.tol2bus.reqLayer0.occupancy         1466208500                       # Layer occupancy (ticks)
system.tol2bus.reqLayer0.utilization              9.6                       # Layer utilization (%)
system.tol2bus.respLayer0.occupancy           4315972                       # Layer occupancy (ticks)
system.tol2bus.respLayer0.utilization             0.0                       # Layer utilization (%)
system.tol2bus.respLayer1.occupancy        1098703000                       # Layer occupancy (ticks)
system.tol2bus.respLayer1.utilization             7.2                       # Layer utilization (%)

---------- End Simulation Statistics   ----------
