
---------- Begin Simulation Statistics ----------
sim_seconds                                  0.015267                       # Number of seconds simulated
sim_ticks                                 15267344125                       # Number of ticks simulated
final_tick                               763367206250                       # Number of ticks from beginning of simulation (restored from checkpoints and never reset)
sim_freq                                 1000000000000                       # Frequency of simulated ticks
host_inst_rate                                5560404                       # Simulator instruction rate (inst/s)
host_op_rate                                 10454895                       # Simulator op (including micro ops) rate (op/s)
host_tick_rate                               52429278                       # Simulator tick rate (ticks/s)
host_mem_usage                                2329220                       # Number of bytes of host memory used
host_seconds                                   291.20                       # Real time elapsed on the host
sim_insts                                  1619183024                       # Number of instructions simulated
sim_ops                                    3044453057                       # Number of ops (including micro ops) simulated
system.voltage_domain.voltage                       1                       # Voltage in Volts
system.clk_domain.clock                          1000                       # Clock period in ticks
system.mem_ctrls.pwrStateResidencyTicks::UNDEFINED  15267344125                       # Cumulative time (in ticks) in various power states
system.mem_ctrls.bytes_read::cpu0.data         885312                       # Number of bytes read from this memory
system.mem_ctrls.bytes_read::total             885312                       # Number of bytes read from this memory
system.mem_ctrls.bytes_written::writebacks       139712                       # Number of bytes written to this memory
system.mem_ctrls.bytes_written::total          139712                       # Number of bytes written to this memory
system.mem_ctrls.num_reads::cpu0.data           13833                       # Number of read requests responded to by this memory
system.mem_ctrls.num_reads::total               13833                       # Number of read requests responded to by this memory
system.mem_ctrls.num_writes::writebacks          2183                       # Number of write requests responded to by this memory
system.mem_ctrls.num_writes::total               2183                       # Number of write requests responded to by this memory
system.mem_ctrls.bw_read::cpu0.data          57987296                       # Total read bandwidth from this memory (bytes/s)
system.mem_ctrls.bw_read::total              57987296                       # Total read bandwidth from this memory (bytes/s)
system.mem_ctrls.bw_write::writebacks         9151035                       # Write bandwidth from this memory (bytes/s)
system.mem_ctrls.bw_write::total              9151035                       # Write bandwidth from this memory (bytes/s)
system.mem_ctrls.bw_total::writebacks         9151035                       # Total bandwidth to/from this memory (bytes/s)
system.mem_ctrls.bw_total::cpu0.data         57987296                       # Total bandwidth to/from this memory (bytes/s)
system.mem_ctrls.bw_total::total             67138331                       # Total bandwidth to/from this memory (bytes/s)
system.mem_ctrls.readReqs                       13832                       # Number of read requests accepted
system.mem_ctrls.writeReqs                       2183                       # Number of write requests accepted
system.mem_ctrls.readBursts                     13832                       # Number of DRAM read bursts, including those serviced by the write queue
system.mem_ctrls.writeBursts                     2183                       # Number of DRAM write bursts, including those merged in the write queue
system.mem_ctrls.bytesReadDRAM                 885312                       # Total number of bytes read from DRAM
system.mem_ctrls.bytesReadWrQ                       0                       # Total number of bytes read from write queue
system.mem_ctrls.bytesWritten                  139136                       # Total number of bytes written to DRAM
system.mem_ctrls.bytesReadSys                  885248                       # Total read bytes from the system interface side
system.mem_ctrls.bytesWrittenSys               139712                       # Total written bytes from the system interface side
system.mem_ctrls.servicedByWrQ                      0                       # Number of DRAM read bursts serviced by the write queue
system.mem_ctrls.mergedWrBursts                     0                       # Number of DRAM write bursts merged with an existing one
system.mem_ctrls.neitherReadNorWriteReqs            0                       # Number of requests that are neither read nor write
system.mem_ctrls.perBankRdBursts::0               768                       # Per bank write bursts
system.mem_ctrls.perBankRdBursts::1               768                       # Per bank write bursts
system.mem_ctrls.perBankRdBursts::2               768                       # Per bank write bursts
system.mem_ctrls.perBankRdBursts::3               798                       # Per bank write bursts
system.mem_ctrls.perBankRdBursts::4               896                       # Per bank write bursts
system.mem_ctrls.perBankRdBursts::5               896                       # Per bank write bursts
system.mem_ctrls.perBankRdBursts::6               896                       # Per bank write bursts
system.mem_ctrls.perBankRdBursts::7               896                       # Per bank write bursts
system.mem_ctrls.perBankRdBursts::8               896                       # Per bank write bursts
system.mem_ctrls.perBankRdBursts::9               904                       # Per bank write bursts
system.mem_ctrls.perBankRdBursts::10              896                       # Per bank write bursts
system.mem_ctrls.perBankRdBursts::11              896                       # Per bank write bursts
system.mem_ctrls.perBankRdBursts::12              896                       # Per bank write bursts
system.mem_ctrls.perBankRdBursts::13              896                       # Per bank write bursts
system.mem_ctrls.perBankRdBursts::14              919                       # Per bank write bursts
system.mem_ctrls.perBankRdBursts::15              844                       # Per bank write bursts
system.mem_ctrls.perBankWrBursts::0                47                       # Per bank write bursts
system.mem_ctrls.perBankWrBursts::1                 2                       # Per bank write bursts
system.mem_ctrls.perBankWrBursts::2                15                       # Per bank write bursts
system.mem_ctrls.perBankWrBursts::3                69                       # Per bank write bursts
system.mem_ctrls.perBankWrBursts::4               146                       # Per bank write bursts
system.mem_ctrls.perBankWrBursts::5               135                       # Per bank write bursts
system.mem_ctrls.perBankWrBursts::6               169                       # Per bank write bursts
system.mem_ctrls.perBankWrBursts::7               260                       # Per bank write bursts
system.mem_ctrls.perBankWrBursts::8               202                       # Per bank write bursts
system.mem_ctrls.perBankWrBursts::9               217                       # Per bank write bursts
system.mem_ctrls.perBankWrBursts::10              130                       # Per bank write bursts
system.mem_ctrls.perBankWrBursts::11              131                       # Per bank write bursts
system.mem_ctrls.perBankWrBursts::12              153                       # Per bank write bursts
system.mem_ctrls.perBankWrBursts::13              227                       # Per bank write bursts
system.mem_ctrls.perBankWrBursts::14              204                       # Per bank write bursts
system.mem_ctrls.perBankWrBursts::15               67                       # Per bank write bursts
system.mem_ctrls.numRdRetry                         0                       # Number of times read queue was full causing retry
system.mem_ctrls.numWrRetry                         0                       # Number of times write queue was full causing retry
system.mem_ctrls.totGap                   15266708000                       # Total gap between requests
system.mem_ctrls.readPktSize::0                     0                       # Read request sizes (log2)
system.mem_ctrls.readPktSize::1                     0                       # Read request sizes (log2)
system.mem_ctrls.readPktSize::2                     0                       # Read request sizes (log2)
system.mem_ctrls.readPktSize::3                     0                       # Read request sizes (log2)
system.mem_ctrls.readPktSize::4                     0                       # Read request sizes (log2)
system.mem_ctrls.readPktSize::5                     0                       # Read request sizes (log2)
system.mem_ctrls.readPktSize::6                 13832                       # Read request sizes (log2)
system.mem_ctrls.writePktSize::0                    0                       # Write request sizes (log2)
system.mem_ctrls.writePktSize::1                    0                       # Write request sizes (log2)
system.mem_ctrls.writePktSize::2                    0                       # Write request sizes (log2)
system.mem_ctrls.writePktSize::3                    0                       # Write request sizes (log2)
system.mem_ctrls.writePktSize::4                    0                       # Write request sizes (log2)
system.mem_ctrls.writePktSize::5                    0                       # Write request sizes (log2)
system.mem_ctrls.writePktSize::6                 2183                       # Write request sizes (log2)
system.mem_ctrls.rdQLenPdf::0                   13832                       # What read queue length does an incoming req see
system.mem_ctrls.rdQLenPdf::1                       0                       # What read queue length does an incoming req see
system.mem_ctrls.rdQLenPdf::2                       0                       # What read queue length does an incoming req see
system.mem_ctrls.rdQLenPdf::3                       0                       # What read queue length does an incoming req see
system.mem_ctrls.rdQLenPdf::4                       0                       # What read queue length does an incoming req see
system.mem_ctrls.rdQLenPdf::5                       0                       # What read queue length does an incoming req see
system.mem_ctrls.rdQLenPdf::6                       0                       # What read queue length does an incoming req see
system.mem_ctrls.rdQLenPdf::7                       0                       # What read queue length does an incoming req see
system.mem_ctrls.rdQLenPdf::8                       0                       # What read queue length does an incoming req see
system.mem_ctrls.rdQLenPdf::9                       0                       # What read queue length does an incoming req see
system.mem_ctrls.rdQLenPdf::10                      0                       # What read queue length does an incoming req see
system.mem_ctrls.rdQLenPdf::11                      0                       # What read queue length does an incoming req see
system.mem_ctrls.rdQLenPdf::12                      0                       # What read queue length does an incoming req see
system.mem_ctrls.rdQLenPdf::13                      0                       # What read queue length does an incoming req see
system.mem_ctrls.rdQLenPdf::14                      0                       # What read queue length does an incoming req see
system.mem_ctrls.rdQLenPdf::15                      0                       # What read queue length does an incoming req see
system.mem_ctrls.rdQLenPdf::16                      0                       # What read queue length does an incoming req see
system.mem_ctrls.rdQLenPdf::17                      0                       # What read queue length does an incoming req see
system.mem_ctrls.rdQLenPdf::18                      0                       # What read queue length does an incoming req see
system.mem_ctrls.rdQLenPdf::19                      0                       # What read queue length does an incoming req see
system.mem_ctrls.rdQLenPdf::20                      0                       # What read queue length does an incoming req see
system.mem_ctrls.rdQLenPdf::21                      0                       # What read queue length does an incoming req see
system.mem_ctrls.rdQLenPdf::22                      0                       # What read queue length does an incoming req see
system.mem_ctrls.rdQLenPdf::23                      0                       # What read queue length does an incoming req see
system.mem_ctrls.rdQLenPdf::24                      0                       # What read queue length does an incoming req see
system.mem_ctrls.rdQLenPdf::25                      0                       # What read queue length does an incoming req see
system.mem_ctrls.rdQLenPdf::26                      0                       # What read queue length does an incoming req see
system.mem_ctrls.rdQLenPdf::27                      0                       # What read queue length does an incoming req see
system.mem_ctrls.rdQLenPdf::28                      0                       # What read queue length does an incoming req see
system.mem_ctrls.rdQLenPdf::29                      0                       # What read queue length does an incoming req see
system.mem_ctrls.rdQLenPdf::30                      0                       # What read queue length does an incoming req see
system.mem_ctrls.rdQLenPdf::31                      0                       # What read queue length does an incoming req see
system.mem_ctrls.wrQLenPdf::0                       0                       # What write queue length does an incoming req see
system.mem_ctrls.wrQLenPdf::1                       0                       # What write queue length does an incoming req see
system.mem_ctrls.wrQLenPdf::2                       0                       # What write queue length does an incoming req see
system.mem_ctrls.wrQLenPdf::3                       0                       # What write queue length does an incoming req see
system.mem_ctrls.wrQLenPdf::4                       0                       # What write queue length does an incoming req see
system.mem_ctrls.wrQLenPdf::5                       0                       # What write queue length does an incoming req see
system.mem_ctrls.wrQLenPdf::6                       0                       # What write queue length does an incoming req see
system.mem_ctrls.wrQLenPdf::7                       0                       # What write queue length does an incoming req see
system.mem_ctrls.wrQLenPdf::8                       0                       # What write queue length does an incoming req see
system.mem_ctrls.wrQLenPdf::9                       0                       # What write queue length does an incoming req see
system.mem_ctrls.wrQLenPdf::10                      0                       # What write queue length does an incoming req see
system.mem_ctrls.wrQLenPdf::11                      0                       # What write queue length does an incoming req see
system.mem_ctrls.wrQLenPdf::12                      0                       # What write queue length does an incoming req see
system.mem_ctrls.wrQLenPdf::13                      0                       # What write queue length does an incoming req see
system.mem_ctrls.wrQLenPdf::14                      0                       # What write queue length does an incoming req see
system.mem_ctrls.wrQLenPdf::15                    119                       # What write queue length does an incoming req see
system.mem_ctrls.wrQLenPdf::16                    119                       # What write queue length does an incoming req see
system.mem_ctrls.wrQLenPdf::17                    121                       # What write queue length does an incoming req see
system.mem_ctrls.wrQLenPdf::18                    122                       # What write queue length does an incoming req see
system.mem_ctrls.wrQLenPdf::19                    122                       # What write queue length does an incoming req see
system.mem_ctrls.wrQLenPdf::20                    122                       # What write queue length does an incoming req see
system.mem_ctrls.wrQLenPdf::21                    122                       # What write queue length does an incoming req see
system.mem_ctrls.wrQLenPdf::22                    122                       # What write queue length does an incoming req see
system.mem_ctrls.wrQLenPdf::23                    122                       # What write queue length does an incoming req see
system.mem_ctrls.wrQLenPdf::24                    122                       # What write queue length does an incoming req see
system.mem_ctrls.wrQLenPdf::25                    122                       # What write queue length does an incoming req see
system.mem_ctrls.wrQLenPdf::26                    122                       # What write queue length does an incoming req see
system.mem_ctrls.wrQLenPdf::27                    121                       # What write queue length does an incoming req see
system.mem_ctrls.wrQLenPdf::28                    121                       # What write queue length does an incoming req see
system.mem_ctrls.wrQLenPdf::29                    121                       # What write queue length does an incoming req see
system.mem_ctrls.wrQLenPdf::30                    121                       # What write queue length does an incoming req see
system.mem_ctrls.wrQLenPdf::31                    121                       # What write queue length does an incoming req see
system.mem_ctrls.wrQLenPdf::32                    121                       # What write queue length does an incoming req see
system.mem_ctrls.wrQLenPdf::33                      0                       # What write queue length does an incoming req see
system.mem_ctrls.wrQLenPdf::34                      0                       # What write queue length does an incoming req see
system.mem_ctrls.wrQLenPdf::35                      0                       # What write queue length does an incoming req see
system.mem_ctrls.wrQLenPdf::36                      0                       # What write queue length does an incoming req see
system.mem_ctrls.wrQLenPdf::37                      0                       # What write queue length does an incoming req see
system.mem_ctrls.wrQLenPdf::38                      0                       # What write queue length does an incoming req see
system.mem_ctrls.wrQLenPdf::39                      0                       # What write queue length does an incoming req see
system.mem_ctrls.wrQLenPdf::40                      0                       # What write queue length does an incoming req see
system.mem_ctrls.wrQLenPdf::41                      0                       # What write queue length does an incoming req see
system.mem_ctrls.wrQLenPdf::42                      0                       # What write queue length does an incoming req see
system.mem_ctrls.wrQLenPdf::43                      0                       # What write queue length does an incoming req see
system.mem_ctrls.wrQLenPdf::44                      0                       # What write queue length does an incoming req see
system.mem_ctrls.wrQLenPdf::45                      0                       # What write queue length does an incoming req see
system.mem_ctrls.wrQLenPdf::46                      0                       # What write queue length does an incoming req see
system.mem_ctrls.wrQLenPdf::47                      0                       # What write queue length does an incoming req see
system.mem_ctrls.wrQLenPdf::48                      0                       # What write queue length does an incoming req see
system.mem_ctrls.wrQLenPdf::49                      0                       # What write queue length does an incoming req see
system.mem_ctrls.wrQLenPdf::50                      0                       # What write queue length does an incoming req see
system.mem_ctrls.wrQLenPdf::51                      0                       # What write queue length does an incoming req see
system.mem_ctrls.wrQLenPdf::52                      0                       # What write queue length does an incoming req see
system.mem_ctrls.wrQLenPdf::53                      0                       # What write queue length does an incoming req see
system.mem_ctrls.wrQLenPdf::54                      0                       # What write queue length does an incoming req see
system.mem_ctrls.wrQLenPdf::55                      0                       # What write queue length does an incoming req see
system.mem_ctrls.wrQLenPdf::56                      0                       # What write queue length does an incoming req see
system.mem_ctrls.wrQLenPdf::57                      0                       # What write queue length does an incoming req see
system.mem_ctrls.wrQLenPdf::58                      0                       # What write queue length does an incoming req see
system.mem_ctrls.wrQLenPdf::59                      0                       # What write queue length does an incoming req see
system.mem_ctrls.wrQLenPdf::60                      0                       # What write queue length does an incoming req see
system.mem_ctrls.wrQLenPdf::61                      0                       # What write queue length does an incoming req see
system.mem_ctrls.wrQLenPdf::62                      0                       # What write queue length does an incoming req see
system.mem_ctrls.wrQLenPdf::63                      0                       # What write queue length does an incoming req see
system.mem_ctrls.bytesPerActivate::samples         3279                       # Bytes accessed per row activation
system.mem_ctrls.bytesPerActivate::mean    312.387923                       # Bytes accessed per row activation
system.mem_ctrls.bytesPerActivate::gmean   228.189364                       # Bytes accessed per row activation
system.mem_ctrls.bytesPerActivate::stdev   207.023723                       # Bytes accessed per row activation
system.mem_ctrls.bytesPerActivate::0-127          974     29.70%     29.70% # Bytes accessed per row activation
system.mem_ctrls.bytesPerActivate::128-255          213      6.50%     36.20% # Bytes accessed per row activation
system.mem_ctrls.bytesPerActivate::256-383          151      4.61%     40.81% # Bytes accessed per row activation
system.mem_ctrls.bytesPerActivate::384-511         1818     55.44%     96.25% # Bytes accessed per row activation
system.mem_ctrls.bytesPerActivate::512-639           14      0.43%     96.68% # Bytes accessed per row activation
system.mem_ctrls.bytesPerActivate::640-767            8      0.24%     96.92% # Bytes accessed per row activation
system.mem_ctrls.bytesPerActivate::768-895            7      0.21%     97.13% # Bytes accessed per row activation
system.mem_ctrls.bytesPerActivate::896-1023           13      0.40%     97.53% # Bytes accessed per row activation
system.mem_ctrls.bytesPerActivate::1024-1151           81      2.47%    100.00% # Bytes accessed per row activation
system.mem_ctrls.bytesPerActivate::total         3279                       # Bytes accessed per row activation
system.mem_ctrls.rdPerTurnAround::samples          121                       # Reads before turning the bus around for writes
system.mem_ctrls.rdPerTurnAround::mean    3067.363636                       # Reads before turning the bus around for writes
system.mem_ctrls.rdPerTurnAround::gmean     29.035567                       # Reads before turning the bus around for writes
system.mem_ctrls.rdPerTurnAround::stdev  33029.151509                       # Reads before turning the bus around for writes
system.mem_ctrls.rdPerTurnAround::0-16383          120     99.17%     99.17% # Reads before turning the bus around for writes
system.mem_ctrls.rdPerTurnAround::360448-376831            1      0.83%    100.00% # Reads before turning the bus around for writes
system.mem_ctrls.rdPerTurnAround::total           121                       # Reads before turning the bus around for writes
system.mem_ctrls.wrPerTurnAround::samples          121                       # Writes before turning the bus around for reads
system.mem_ctrls.wrPerTurnAround::mean      17.966942                       # Writes before turning the bus around for reads
system.mem_ctrls.wrPerTurnAround::gmean     17.964991                       # Writes before turning the bus around for reads
system.mem_ctrls.wrPerTurnAround::stdev      0.256056                       # Writes before turning the bus around for reads
system.mem_ctrls.wrPerTurnAround::16                2      1.65%      1.65% # Writes before turning the bus around for reads
system.mem_ctrls.wrPerTurnAround::18              119     98.35%    100.00% # Writes before turning the bus around for reads
system.mem_ctrls.wrPerTurnAround::total           121                       # Writes before turning the bus around for reads
system.mem_ctrls.totQLat                    368007000                       # Total ticks spent queuing
system.mem_ctrls.totMemAccLat               627375750                       # Total ticks spent from burst creation until serviced by the DRAM
system.mem_ctrls.totBusLat                   69165000                       # Total ticks spent in databus transfers
system.mem_ctrls.avgQLat                     26605.48                       # Average queueing delay per DRAM burst
system.mem_ctrls.avgBusLat                    5000.36                       # Average bus latency per DRAM burst
system.mem_ctrls.avgMemAccLat                45356.84                       # Average memory access latency per DRAM burst
system.mem_ctrls.avgRdBW                        57.99                       # Average DRAM read bandwidth in MiByte/s
system.mem_ctrls.avgWrBW                         9.11                       # Average achieved write bandwidth in MiByte/s
system.mem_ctrls.avgRdBWSys                     57.98                       # Average system read bandwidth in MiByte/s
system.mem_ctrls.avgWrBWSys                      9.15                       # Average system write bandwidth in MiByte/s
system.mem_ctrls.peakBW                      12800.00                       # Theoretical peak bandwidth in MiByte/s
system.mem_ctrls.busUtil                         0.52                       # Data bus utilization in percentage
system.mem_ctrls.busUtilRead                     0.45                       # Data bus utilization in percentage for reads
system.mem_ctrls.busUtilWrite                    0.07                       # Data bus utilization in percentage for writes
system.mem_ctrls.avgRdQLen                       1.00                       # Average read queue length when enqueuing
system.mem_ctrls.avgWrQLen                      22.54                       # Average write queue length when enqueuing
system.mem_ctrls.readRowHits                    10904                       # Number of row buffer hits during reads
system.mem_ctrls.writeRowHits                    1824                       # Number of row buffer hits during writes
system.mem_ctrls.readRowHitRate                 78.83                       # Row buffer hit rate for reads
system.mem_ctrls.writeRowHitRate                83.55                       # Row buffer hit rate for writes
system.mem_ctrls.avgGap                     953275.55                       # Average gap between requests
system.mem_ctrls.pageHitRate                    79.48                       # Row buffer hit rate, read and write combined
system.mem_ctrls_0.actEnergy                 11930940                       # Energy for activate commands per rank (pJ)
system.mem_ctrls_0.preEnergy                  6345240                       # Energy for precharge commands per rank (pJ)
system.mem_ctrls_0.readEnergy                47738040                       # Energy for read commands per rank (pJ)
system.mem_ctrls_0.writeEnergy                4400460                       # Energy for write commands per rank (pJ)
system.mem_ctrls_0.refreshEnergy         1139542560.000000                       # Energy for refresh commands per rank (pJ)
system.mem_ctrls_0.actBackEnergy            319064340                       # Energy for active background per rank (pJ)
system.mem_ctrls_0.preBackEnergy             56593920                       # Energy for precharge background per rank (pJ)
system.mem_ctrls_0.actPowerDownEnergy      3807871890                       # Energy for active power-down per rank (pJ)
system.mem_ctrls_0.prePowerDownEnergy      1092514560                       # Energy for precharge power-down per rank (pJ)
system.mem_ctrls_0.selfRefreshEnergy        956689440                       # Energy for self refresh per rank (pJ)
system.mem_ctrls_0.totalEnergy             7442691390                       # Total energy per rank (pJ)
system.mem_ctrls_0.averagePower            487.490904                       # Core power per rank (mW)
system.mem_ctrls_0.totalIdleTime          14414919625                       # Total Idle time Per DRAM Rank
system.mem_ctrls_0.memoryStateTime::IDLE    101702000                       # Time in different power states
system.mem_ctrls_0.memoryStateTime::REF     484026000                       # Time in different power states
system.mem_ctrls_0.memoryStateTime::SREF   3224569750                       # Time in different power states
system.mem_ctrls_0.memoryStateTime::PRE_PDN   2845158000                       # Time in different power states
system.mem_ctrls_0.memoryStateTime::ACT     261508500                       # Time in different power states
system.mem_ctrls_0.memoryStateTime::ACT_PDN   8350379875                       # Time in different power states
system.mem_ctrls_1.actEnergy                 11481120                       # Energy for activate commands per rank (pJ)
system.mem_ctrls_1.preEnergy                  6098565                       # Energy for precharge commands per rank (pJ)
system.mem_ctrls_1.readEnergy                51029580                       # Energy for read commands per rank (pJ)
system.mem_ctrls_1.writeEnergy                6947820                       # Energy for write commands per rank (pJ)
system.mem_ctrls_1.refreshEnergy         810710160.000000                       # Energy for refresh commands per rank (pJ)
system.mem_ctrls_1.actBackEnergy            305702970                       # Energy for active background per rank (pJ)
system.mem_ctrls_1.preBackEnergy             25636800                       # Energy for precharge background per rank (pJ)
system.mem_ctrls_1.actPowerDownEnergy      3539576310                       # Energy for active power-down per rank (pJ)
system.mem_ctrls_1.prePowerDownEnergy       422345280                       # Energy for precharge power-down per rank (pJ)
system.mem_ctrls_1.selfRefreshEnergy       1411668720                       # Energy for self refresh per rank (pJ)
system.mem_ctrls_1.totalEnergy             6591197325                       # Total energy per rank (pJ)
system.mem_ctrls_1.averagePower            431.718659                       # Core power per rank (mW)
system.mem_ctrls_1.totalIdleTime          14528931500                       # Total Idle time Per DRAM Rank
system.mem_ctrls_1.memoryStateTime::IDLE     31386000                       # Time in different power states
system.mem_ctrls_1.memoryStateTime::REF     343645625                       # Time in different power states
system.mem_ctrls_1.memoryStateTime::SREF   5667957250                       # Time in different power states
system.mem_ctrls_1.memoryStateTime::PRE_PDN   1099593750                       # Time in different power states
system.mem_ctrls_1.memoryStateTime::ACT     362690500                       # Time in different power states
system.mem_ctrls_1.memoryStateTime::ACT_PDN   7762071000                       # Time in different power states
system.pwrStateResidencyTicks::UNDEFINED  15267344125                       # Cumulative time (in ticks) in various power states
system.cpu0.branchPred.lookups                5257113                       # Number of BP lookups
system.cpu0.branchPred.condPredicted          5257113                       # Number of conditional branches predicted
system.cpu0.branchPred.condIncorrect           108376                       # Number of conditional branches incorrect
system.cpu0.branchPred.BTBLookups             3896245                       # Number of BTB lookups
system.cpu0.branchPred.BTBHits                      0                       # Number of BTB hits
system.cpu0.branchPred.BTBCorrect                   0                       # Number of correct BTB predictions (this stat may not work properly.
system.cpu0.branchPred.BTBHitPct             0.000000                       # BTB Hit Percentage
system.cpu0.branchPred.usedRAS                 731691                       # Number of times the RAS was used to get a target.
system.cpu0.branchPred.RASInCorrect                 8                       # Number of incorrect RAS predictions.
system.cpu0.branchPred.indirectLookups        3896245                       # Number of indirect predictor lookups.
system.cpu0.branchPred.indirectHits           2526325                       # Number of indirect target hits.
system.cpu0.branchPred.indirectMisses         1369920                       # Number of indirect misses.
system.cpu0.branchPredindirectMispredicted           43                       # Number of mispredicted indirect branches.
system.cpu_voltage_domain.voltage                   1                       # Voltage in Volts
system.cpu_clk_domain.clock                       500                       # Clock period in ticks
system.cpu0.dtb.walker.pwrStateResidencyTicks::UNDEFINED  15267344125                       # Cumulative time (in ticks) in various power states
system.cpu0.dtb.rdAccesses                    8920688                       # TLB accesses on read requests
system.cpu0.dtb.wrAccesses                    2098195                       # TLB accesses on write requests
system.cpu0.dtb.rdMisses                          242                       # TLB misses on read requests
system.cpu0.dtb.wrMisses                            0                       # TLB misses on write requests
system.cpu0.apic_clk_domain.clock                8000                       # Clock period in ticks
system.cpu0.interrupts.pwrStateResidencyTicks::UNDEFINED  15267344125                       # Cumulative time (in ticks) in various power states
system.cpu0.itb.walker.pwrStateResidencyTicks::UNDEFINED  15267344125                       # Cumulative time (in ticks) in various power states
system.cpu0.itb.rdAccesses                          0                       # TLB accesses on read requests
system.cpu0.itb.wrAccesses                    6278808                       # TLB accesses on write requests
system.cpu0.itb.rdMisses                            0                       # TLB misses on read requests
system.cpu0.itb.wrMisses                            0                       # TLB misses on write requests
system.cpu0.workload.numSyscalls                    0                       # Number of system calls
system.cpu0.pwrStateResidencyTicks::ON    15267344125                       # Cumulative time (in ticks) in various power states
system.cpu0.numCycles                        30534688                       # number of cpu cycles simulated
system.cpu0.numWorkItemsStarted                     0                       # number of work items this cpu started
system.cpu0.numWorkItemsCompleted                   0                       # number of work items this cpu completed
system.cpu0.fetch.icacheStallCycles           6332959                       # Number of cycles fetch is stalled on an Icache miss
system.cpu0.fetch.Insts                      46430867                       # Number of instructions fetch has processed
system.cpu0.fetch.Branches                    5257113                       # Number of branches that fetch encountered
system.cpu0.fetch.predictedBranches           3258016                       # Number of branches that fetch has predicted taken
system.cpu0.fetch.Cycles                     24093238                       # Number of cycles fetch has run and was not squashing or blocked
system.cpu0.fetch.SquashCycles                 216982                       # Number of cycles fetch has spent squashing
system.cpu0.fetch.CacheLines                  6278808                       # Number of cache lines fetched
system.cpu0.fetch.IcacheSquashes                54313                       # Number of outstanding Icache misses that were squashed
system.cpu0.fetch.rateDist::samples          30534688                       # Number of instructions fetched each cycle (Total)
system.cpu0.fetch.rateDist::mean             2.657085                       # Number of instructions fetched each cycle (Total)
system.cpu0.fetch.rateDist::stdev            3.369771                       # Number of instructions fetched each cycle (Total)
system.cpu0.fetch.rateDist::underflows              0      0.00%      0.00% # Number of instructions fetched each cycle (Total)
system.cpu0.fetch.rateDist::0                16770850     54.92%     54.92% # Number of instructions fetched each cycle (Total)
system.cpu0.fetch.rateDist::1                  734610      2.41%     57.33% # Number of instructions fetched each cycle (Total)
system.cpu0.fetch.rateDist::2                 1662352      5.44%     62.77% # Number of instructions fetched each cycle (Total)
system.cpu0.fetch.rateDist::3                  662097      2.17%     64.94% # Number of instructions fetched each cycle (Total)
system.cpu0.fetch.rateDist::4                  976795      3.20%     68.14% # Number of instructions fetched each cycle (Total)
system.cpu0.fetch.rateDist::5                 1544236      5.06%     73.20% # Number of instructions fetched each cycle (Total)
system.cpu0.fetch.rateDist::6                  566521      1.86%     75.05% # Number of instructions fetched each cycle (Total)
system.cpu0.fetch.rateDist::7                  877632      2.87%     77.93% # Number of instructions fetched each cycle (Total)
system.cpu0.fetch.rateDist::8                 6739595     22.07%    100.00% # Number of instructions fetched each cycle (Total)
system.cpu0.fetch.rateDist::overflows               0      0.00%    100.00% # Number of instructions fetched each cycle (Total)
system.cpu0.fetch.rateDist::min_value               0                       # Number of instructions fetched each cycle (Total)
system.cpu0.fetch.rateDist::max_value               8                       # Number of instructions fetched each cycle (Total)
system.cpu0.fetch.rateDist::total            30534688                       # Number of instructions fetched each cycle (Total)
system.cpu0.fetch.branchRate                 0.172169                       # Number of branch fetches per cycle
system.cpu0.fetch.rate                       1.520594                       # Number of inst fetches per cycle
system.cpu0.decode.IdleCycles                 4129747                       # Number of cycles decode is idle
system.cpu0.decode.BlockedCycles             15756252                       # Number of cycles decode is blocked
system.cpu0.decode.RunCycles                  6202628                       # Number of cycles decode is running
system.cpu0.decode.UnblockCycles              4337570                       # Number of cycles decode is unblocking
system.cpu0.decode.SquashCycles                108491                       # Number of cycles decode is squashing
system.cpu0.decode.DecodedInsts              77588026                       # Number of instructions handled by decode
system.cpu0.rename.SquashCycles                108491                       # Number of cycles rename is squashing
system.cpu0.rename.IdleCycles                 5837055                       # Number of cycles rename is idle
system.cpu0.rename.BlockCycles                5667947                       # Number of cycles rename is blocking
system.cpu0.rename.serializeStallCycles             3                       # count of cycles rename stalled for serializing inst
system.cpu0.rename.RunCycles                  8774189                       # Number of cycles rename is running
system.cpu0.rename.UnblockCycles             10147003                       # Number of cycles rename is unblocking
system.cpu0.rename.RenamedInsts              77094345                       # Number of instructions processed by rename
system.cpu0.rename.ROBFullEvents               202065                       # Number of times rename has blocked due to ROB full
system.cpu0.rename.IQFullEvents               9073468                       # Number of times rename has blocked due to IQ full
system.cpu0.rename.LQFullEvents                    34                       # Number of times rename has blocked due to LQ full
system.cpu0.rename.RenamedOperands           82925357                       # Number of destination operands rename has renamed
system.cpu0.rename.RenameLookups            183141891                       # Number of register rename lookups that rename has made
system.cpu0.rename.int_rename_lookups        60286597                       # Number of integer rename lookups
system.cpu0.rename.fp_rename_lookups         75148361                       # Number of floating rename lookups
system.cpu0.rename.CommittedMaps             70486138                       # Number of HB maps that are committed
system.cpu0.rename.UndoneMaps                12439299                       # Number of HB maps that are undone due to squashing
system.cpu0.rename.serializingInsts                 1                       # count of serializing insts renamed
system.cpu0.rename.tempSerializingInsts             1                       # count of temporary serializing insts renamed
system.cpu0.rename.skidInsts                 23300323                       # count of insts added to the skid buffer
system.cpu0.memDep0.insertedLoads             9512028                       # Number of loads inserted to the mem dependence unit.
system.cpu0.memDep0.insertedStores            2100603                       # Number of stores inserted to the mem dependence unit.
system.cpu0.memDep0.conflictingLoads           425479                       # Number of conflicting loads.
system.cpu0.memDep0.conflictingStores          159712                       # Number of conflicting stores.
system.cpu0.iq.iqInstsAdded                  76426299                       # Number of instructions added to the IQ (excludes non-spec)
system.cpu0.iq.iqNonSpecInstsAdded                  1                       # Number of non-speculative instructions added to the IQ
system.cpu0.iq.iqInstsIssued                 70777520                       # Number of instructions issued
system.cpu0.iq.iqSquashedInstsIssued               11                       # Number of squashed instructions issued
system.cpu0.iq.iqSquashedInstsExamined       10549073                       # Number of squashed instructions iterated over during squash; mainly for profiling
system.cpu0.iq.iqSquashedOperandsExamined     15203970                       # Number of squashed operands that are examined and possibly removed from graph
system.cpu0.iq.iqSquashedNonSpecRemoved             1                       # Number of squashed non-spec instructions that were removed
system.cpu0.iq.issued_per_cycle::samples     30534688                       # Number of insts issued each cycle
system.cpu0.iq.issued_per_cycle::mean        2.317938                       # Number of insts issued each cycle
system.cpu0.iq.issued_per_cycle::stdev       1.958288                       # Number of insts issued each cycle
system.cpu0.iq.issued_per_cycle::underflows            0      0.00%      0.00% # Number of insts issued each cycle
system.cpu0.iq.issued_per_cycle::0            6341819     20.77%     20.77% # Number of insts issued each cycle
system.cpu0.iq.issued_per_cycle::1            6114223     20.02%     40.79% # Number of insts issued each cycle
system.cpu0.iq.issued_per_cycle::2            5655559     18.52%     59.31% # Number of insts issued each cycle
system.cpu0.iq.issued_per_cycle::3            4853284     15.89%     75.21% # Number of insts issued each cycle
system.cpu0.iq.issued_per_cycle::4            2971617      9.73%     84.94% # Number of insts issued each cycle
system.cpu0.iq.issued_per_cycle::5            1975252      6.47%     91.41% # Number of insts issued each cycle
system.cpu0.iq.issued_per_cycle::6            1626159      5.33%     96.74% # Number of insts issued each cycle
system.cpu0.iq.issued_per_cycle::7             701555      2.30%     99.03% # Number of insts issued each cycle
system.cpu0.iq.issued_per_cycle::8             295220      0.97%    100.00% # Number of insts issued each cycle
system.cpu0.iq.issued_per_cycle::overflows            0      0.00%    100.00% # Number of insts issued each cycle
system.cpu0.iq.issued_per_cycle::min_value            0                       # Number of insts issued each cycle
system.cpu0.iq.issued_per_cycle::max_value            8                       # Number of insts issued each cycle
system.cpu0.iq.issued_per_cycle::total       30534688                       # Number of insts issued each cycle
system.cpu0.iq.fu_full::No_OpClass                  0      0.00%      0.00% # attempts to use FU when none available
system.cpu0.iq.fu_full::IntAlu                     11      0.01%      0.01% # attempts to use FU when none available
system.cpu0.iq.fu_full::IntMult                     0      0.00%      0.01% # attempts to use FU when none available
system.cpu0.iq.fu_full::IntDiv                      0      0.00%      0.01% # attempts to use FU when none available
system.cpu0.iq.fu_full::FloatAdd               105686     99.82%     99.83% # attempts to use FU when none available
system.cpu0.iq.fu_full::FloatCmp                    0      0.00%     99.83% # attempts to use FU when none available
system.cpu0.iq.fu_full::FloatCvt                    0      0.00%     99.83% # attempts to use FU when none available
system.cpu0.iq.fu_full::FloatMult                   0      0.00%     99.83% # attempts to use FU when none available
system.cpu0.iq.fu_full::FloatMultAcc                0      0.00%     99.83% # attempts to use FU when none available
system.cpu0.iq.fu_full::FloatDiv                    0      0.00%     99.83% # attempts to use FU when none available
system.cpu0.iq.fu_full::FloatMisc                   0      0.00%     99.83% # attempts to use FU when none available
system.cpu0.iq.fu_full::FloatSqrt                   0      0.00%     99.83% # attempts to use FU when none available
system.cpu0.iq.fu_full::SimdAdd                     0      0.00%     99.83% # attempts to use FU when none available
system.cpu0.iq.fu_full::SimdAddAcc                  0      0.00%     99.83% # attempts to use FU when none available
system.cpu0.iq.fu_full::SimdAlu                     0      0.00%     99.83% # attempts to use FU when none available
system.cpu0.iq.fu_full::SimdCmp                     0      0.00%     99.83% # attempts to use FU when none available
system.cpu0.iq.fu_full::SimdCvt                     0      0.00%     99.83% # attempts to use FU when none available
system.cpu0.iq.fu_full::SimdMisc                    0      0.00%     99.83% # attempts to use FU when none available
system.cpu0.iq.fu_full::SimdMult                    0      0.00%     99.83% # attempts to use FU when none available
system.cpu0.iq.fu_full::SimdMultAcc                 0      0.00%     99.83% # attempts to use FU when none available
system.cpu0.iq.fu_full::SimdShift                   0      0.00%     99.83% # attempts to use FU when none available
system.cpu0.iq.fu_full::SimdShiftAcc                0      0.00%     99.83% # attempts to use FU when none available
system.cpu0.iq.fu_full::SimdSqrt                    0      0.00%     99.83% # attempts to use FU when none available
system.cpu0.iq.fu_full::SimdFloatAdd                0      0.00%     99.83% # attempts to use FU when none available
system.cpu0.iq.fu_full::SimdFloatAlu                0      0.00%     99.83% # attempts to use FU when none available
system.cpu0.iq.fu_full::SimdFloatCmp                0      0.00%     99.83% # attempts to use FU when none available
system.cpu0.iq.fu_full::SimdFloatCvt                0      0.00%     99.83% # attempts to use FU when none available
system.cpu0.iq.fu_full::SimdFloatDiv                0      0.00%     99.83% # attempts to use FU when none available
system.cpu0.iq.fu_full::SimdFloatMisc               0      0.00%     99.83% # attempts to use FU when none available
system.cpu0.iq.fu_full::SimdFloatMult               0      0.00%     99.83% # attempts to use FU when none available
system.cpu0.iq.fu_full::SimdFloatMultAcc            0      0.00%     99.83% # attempts to use FU when none available
system.cpu0.iq.fu_full::SimdFloatSqrt               0      0.00%     99.83% # attempts to use FU when none available
system.cpu0.iq.fu_full::MemRead                   180      0.17%    100.00% # attempts to use FU when none available
system.cpu0.iq.fu_full::MemWrite                    0      0.00%    100.00% # attempts to use FU when none available
system.cpu0.iq.fu_full::FloatMemRead                0      0.00%    100.00% # attempts to use FU when none available
system.cpu0.iq.fu_full::FloatMemWrite               0      0.00%    100.00% # attempts to use FU when none available
system.cpu0.iq.fu_full::IprAccess                   0      0.00%    100.00% # attempts to use FU when none available
system.cpu0.iq.fu_full::InstPrefetch                0      0.00%    100.00% # attempts to use FU when none available
system.cpu0.iq.FU_type_0::No_OpClass             6224      0.01%      0.01% # Type of FU issued
system.cpu0.iq.FU_type_0::IntAlu             36820624     52.02%     52.03% # Type of FU issued
system.cpu0.iq.FU_type_0::IntMult                   0      0.00%     52.03% # Type of FU issued
system.cpu0.iq.FU_type_0::IntDiv                    0      0.00%     52.03% # Type of FU issued
system.cpu0.iq.FU_type_0::FloatAdd           22956313     32.43%     84.47% # Type of FU issued
system.cpu0.iq.FU_type_0::FloatCmp                  0      0.00%     84.47% # Type of FU issued
system.cpu0.iq.FU_type_0::FloatCvt                  0      0.00%     84.47% # Type of FU issued
system.cpu0.iq.FU_type_0::FloatMult                 0      0.00%     84.47% # Type of FU issued
system.cpu0.iq.FU_type_0::FloatMultAcc              0      0.00%     84.47% # Type of FU issued
system.cpu0.iq.FU_type_0::FloatDiv                  0      0.00%     84.47% # Type of FU issued
system.cpu0.iq.FU_type_0::FloatMisc                 0      0.00%     84.47% # Type of FU issued
system.cpu0.iq.FU_type_0::FloatSqrt                 0      0.00%     84.47% # Type of FU issued
system.cpu0.iq.FU_type_0::SimdAdd                   0      0.00%     84.47% # Type of FU issued
system.cpu0.iq.FU_type_0::SimdAddAcc                0      0.00%     84.47% # Type of FU issued
system.cpu0.iq.FU_type_0::SimdAlu                   0      0.00%     84.47% # Type of FU issued
system.cpu0.iq.FU_type_0::SimdCmp                   0      0.00%     84.47% # Type of FU issued
system.cpu0.iq.FU_type_0::SimdCvt                   0      0.00%     84.47% # Type of FU issued
system.cpu0.iq.FU_type_0::SimdMisc                  0      0.00%     84.47% # Type of FU issued
system.cpu0.iq.FU_type_0::SimdMult                  0      0.00%     84.47% # Type of FU issued
system.cpu0.iq.FU_type_0::SimdMultAcc               0      0.00%     84.47% # Type of FU issued
system.cpu0.iq.FU_type_0::SimdShift                 0      0.00%     84.47% # Type of FU issued
system.cpu0.iq.FU_type_0::SimdShiftAcc              0      0.00%     84.47% # Type of FU issued
system.cpu0.iq.FU_type_0::SimdSqrt                  0      0.00%     84.47% # Type of FU issued
system.cpu0.iq.FU_type_0::SimdFloatAdd              0      0.00%     84.47% # Type of FU issued
system.cpu0.iq.FU_type_0::SimdFloatAlu              0      0.00%     84.47% # Type of FU issued
system.cpu0.iq.FU_type_0::SimdFloatCmp              0      0.00%     84.47% # Type of FU issued
system.cpu0.iq.FU_type_0::SimdFloatCvt              0      0.00%     84.47% # Type of FU issued
system.cpu0.iq.FU_type_0::SimdFloatDiv              0      0.00%     84.47% # Type of FU issued
system.cpu0.iq.FU_type_0::SimdFloatMisc             0      0.00%     84.47% # Type of FU issued
system.cpu0.iq.FU_type_0::SimdFloatMult             0      0.00%     84.47% # Type of FU issued
system.cpu0.iq.FU_type_0::SimdFloatMultAcc            0      0.00%     84.47% # Type of FU issued
system.cpu0.iq.FU_type_0::SimdFloatSqrt             0      0.00%     84.47% # Type of FU issued
system.cpu0.iq.FU_type_0::MemRead             1958577      2.77%     87.23% # Type of FU issued
system.cpu0.iq.FU_type_0::MemWrite            1471825      2.08%     89.31% # Type of FU issued
system.cpu0.iq.FU_type_0::FloatMemRead        6936987      9.80%     99.11% # Type of FU issued
system.cpu0.iq.FU_type_0::FloatMemWrite        626970      0.89%    100.00% # Type of FU issued
system.cpu0.iq.FU_type_0::IprAccess                 0      0.00%    100.00% # Type of FU issued
system.cpu0.iq.FU_type_0::InstPrefetch              0      0.00%    100.00% # Type of FU issued
system.cpu0.iq.FU_type_0::total              70777520                       # Type of FU issued
system.cpu0.iq.rate                          2.317938                       # Inst issue rate
system.cpu0.iq.fu_busy_cnt                     105877                       # FU busy when requested
system.cpu0.iq.fu_busy_rate                  0.001496                       # FU busy rate (busy events/executed inst)
system.cpu0.iq.int_inst_queue_reads          97503088                       # Number of integer instruction queue reads
system.cpu0.iq.int_inst_queue_writes         37515129                       # Number of integer instruction queue writes
system.cpu0.iq.int_inst_queue_wakeup_accesses     33420746                       # Number of integer instruction queue wakeup accesses
system.cpu0.iq.fp_inst_queue_reads           74692525                       # Number of floating instruction queue reads
system.cpu0.iq.fp_inst_queue_writes          49460359                       # Number of floating instruction queue writes
system.cpu0.iq.fp_inst_queue_wakeup_accesses     37148786                       # Number of floating instruction queue wakeup accesses
system.cpu0.iq.vec_inst_queue_reads                 0                       # Number of vector instruction queue reads
system.cpu0.iq.vec_inst_queue_writes                0                       # Number of vector instruction queue writes
system.cpu0.iq.vec_inst_queue_wakeup_accesses            0                       # Number of vector instruction queue wakeup accesses
system.cpu0.iq.int_alu_accesses              33478067                       # Number of integer alu accesses
system.cpu0.iq.fp_alu_accesses               37399106                       # Number of floating point alu accesses
system.cpu0.iq.vec_alu_accesses                     0                       # Number of vector alu accesses
system.cpu0.iew.lsq.thread0.forwLoads          419209                       # Number of loads that had data forwarded from stores
system.cpu0.iew.lsq.thread0.invAddrLoads            0                       # Number of loads ignored due to an invalid address
system.cpu0.iew.lsq.thread0.squashedLoads      1400331                       # Number of loads squashed
system.cpu0.iew.lsq.thread0.ignoredResponses            5                       # Number of memory responses ignored because the instruction is squashed
system.cpu0.iew.lsq.thread0.memOrderViolation          115                       # Number of memory ordering violations
system.cpu0.iew.lsq.thread0.squashedStores         3678                       # Number of stores squashed
system.cpu0.iew.lsq.thread0.invAddrSwpfs            0                       # Number of software prefetches ignored due to an invalid address
system.cpu0.iew.lsq.thread0.blockedLoads            0                       # Number of blocked loads due to partial load-store forwarding
system.cpu0.iew.lsq.thread0.rescheduledLoads            0                       # Number of loads that were rescheduled
system.cpu0.iew.lsq.thread0.cacheBlocked            0                       # Number of times an access to memory failed due to the cache being blocked
system.cpu0.iew.iewIdleCycles                       0                       # Number of cycles IEW is idle
system.cpu0.iew.iewSquashCycles                108491                       # Number of cycles IEW is squashing
system.cpu0.iew.iewBlockCycles                3314853                       # Number of cycles IEW is blocking
system.cpu0.iew.iewUnblockCycles               112669                       # Number of cycles IEW is unblocking
system.cpu0.iew.iewDispatchedInsts           76426300                       # Number of instructions dispatched to IQ
system.cpu0.iew.iewDispSquashedInsts               17                       # Number of squashed instructions skipped by dispatch
system.cpu0.iew.iewDispLoadInsts              9512028                       # Number of dispatched load instructions
system.cpu0.iew.iewDispStoreInsts             2100603                       # Number of dispatched store instructions
system.cpu0.iew.iewDispNonSpecInsts                 1                       # Number of dispatched non-speculative instructions
system.cpu0.iew.iewIQFullEvents                 99536                       # Number of times the IQ has become full, causing a stall
system.cpu0.iew.iewLSQFullEvents                    0                       # Number of times the LSQ has become full, causing a stall
system.cpu0.iew.memOrderViolationEvents           115                       # Number of memory order violations
system.cpu0.iew.predictedTakenIncorrect         58311                       # Number of branches that were predicted taken incorrectly
system.cpu0.iew.predictedNotTakenIncorrect        50086                       # Number of branches that were predicted not taken incorrectly
system.cpu0.iew.branchMispredicts              108397                       # Number of branch mispredicts detected at execute
system.cpu0.iew.iewExecutedInsts             70578405                       # Number of executed instructions
system.cpu0.iew.iewExecLoadInsts              8894392                       # Number of load instructions executed
system.cpu0.iew.iewExecSquashedInsts           199112                       # Number of squashed instructions skipped in execute
system.cpu0.iew.exec_swp                            0                       # number of swp insts executed
system.cpu0.iew.exec_nop                            0                       # number of nop insts executed
system.cpu0.iew.exec_refs                    10992587                       # number of memory reference insts executed
system.cpu0.iew.exec_branches                 4714843                       # Number of branches executed
system.cpu0.iew.exec_stores                   2098195                       # Number of stores executed
system.cpu0.iew.exec_rate                    2.311417                       # Inst execution rate
system.cpu0.iew.wb_sent                      70573851                       # cumulative count of insts sent to commit
system.cpu0.iew.wb_count                     70569532                       # cumulative count of insts written-back
system.cpu0.iew.wb_producers                 52536616                       # num instructions producing a value
system.cpu0.iew.wb_consumers                 92468436                       # num instructions consuming a value
system.cpu0.iew.wb_rate                      2.311127                       # insts written-back per cycle
system.cpu0.iew.wb_fanout                    0.568157                       # average fanout of values written-back
system.cpu0.commit.commitSquashedInsts       10549073                       # The number of squashed insts skipped by commit
system.cpu0.commit.branchMispredicts           108376                       # The number of times a branch was mispredicted
system.cpu0.commit.committed_per_cycle::samples     29185445                       # Number of insts commited each cycle
system.cpu0.commit.committed_per_cycle::mean     2.257198                       # Number of insts commited each cycle
system.cpu0.commit.committed_per_cycle::stdev     2.862266                       # Number of insts commited each cycle
system.cpu0.commit.committed_per_cycle::underflows            0      0.00%      0.00% # Number of insts commited each cycle
system.cpu0.commit.committed_per_cycle::0     10933711     37.46%     37.46% # Number of insts commited each cycle
system.cpu0.commit.committed_per_cycle::1      7523535     25.78%     63.24% # Number of insts commited each cycle
system.cpu0.commit.committed_per_cycle::2      1056249      3.62%     66.86% # Number of insts commited each cycle
system.cpu0.commit.committed_per_cycle::3      2910616      9.97%     76.83% # Number of insts commited each cycle
system.cpu0.commit.committed_per_cycle::4      1142239      3.91%     80.75% # Number of insts commited each cycle
system.cpu0.commit.committed_per_cycle::5       217040      0.74%     81.49% # Number of insts commited each cycle
system.cpu0.commit.committed_per_cycle::6       420931      1.44%     82.93% # Number of insts commited each cycle
system.cpu0.commit.committed_per_cycle::7       519299      1.78%     84.71% # Number of insts commited each cycle
system.cpu0.commit.committed_per_cycle::8      4461825     15.29%    100.00% # Number of insts commited each cycle
system.cpu0.commit.committed_per_cycle::overflows            0      0.00%    100.00% # Number of insts commited each cycle
system.cpu0.commit.committed_per_cycle::min_value            0                       # Number of insts commited each cycle
system.cpu0.commit.committed_per_cycle::max_value            8                       # Number of insts commited each cycle
system.cpu0.commit.committed_per_cycle::total     29185445                       # Number of insts commited each cycle
system.cpu0.commit.committedInsts            37104303                       # Number of instructions committed
system.cpu0.commit.committedOps              65877316                       # Number of ops (including micro ops) committed
system.cpu0.commit.swp_count                        0                       # Number of s/w prefetches committed
system.cpu0.commit.refs                      10208636                       # Number of memory references committed
system.cpu0.commit.loads                      8111702                       # Number of loads committed
system.cpu0.commit.membars                          0                       # Number of memory barriers committed
system.cpu0.commit.branches                   4608846                       # Number of branches committed
system.cpu0.commit.vec_insts                        0                       # Number of committed Vector instructions.
system.cpu0.commit.fp_insts                  34062351                       # Number of committed floating point instructions.
system.cpu0.commit.int_insts                 40898320                       # Number of committed integer instructions.
system.cpu0.commit.function_calls              626958                       # Number of function calls committed.
system.cpu0.commit.op_class_0::No_OpClass         5986      0.01%      0.01% # Class of committed instruction
system.cpu0.commit.op_class_0::IntAlu        34242795     51.98%     51.99% # Class of committed instruction
system.cpu0.commit.op_class_0::IntMult              0      0.00%     51.99% # Class of committed instruction
system.cpu0.commit.op_class_0::IntDiv               0      0.00%     51.99% # Class of committed instruction
system.cpu0.commit.op_class_0::FloatAdd      21419899     32.51%     84.50% # Class of committed instruction
system.cpu0.commit.op_class_0::FloatCmp             0      0.00%     84.50% # Class of committed instruction
system.cpu0.commit.op_class_0::FloatCvt             0      0.00%     84.50% # Class of committed instruction
system.cpu0.commit.op_class_0::FloatMult            0      0.00%     84.50% # Class of committed instruction
system.cpu0.commit.op_class_0::FloatMultAcc            0      0.00%     84.50% # Class of committed instruction
system.cpu0.commit.op_class_0::FloatDiv             0      0.00%     84.50% # Class of committed instruction
system.cpu0.commit.op_class_0::FloatMisc            0      0.00%     84.50% # Class of committed instruction
system.cpu0.commit.op_class_0::FloatSqrt            0      0.00%     84.50% # Class of committed instruction
system.cpu0.commit.op_class_0::SimdAdd              0      0.00%     84.50% # Class of committed instruction
system.cpu0.commit.op_class_0::SimdAddAcc            0      0.00%     84.50% # Class of committed instruction
system.cpu0.commit.op_class_0::SimdAlu              0      0.00%     84.50% # Class of committed instruction
system.cpu0.commit.op_class_0::SimdCmp              0      0.00%     84.50% # Class of committed instruction
system.cpu0.commit.op_class_0::SimdCvt              0      0.00%     84.50% # Class of committed instruction
system.cpu0.commit.op_class_0::SimdMisc             0      0.00%     84.50% # Class of committed instruction
system.cpu0.commit.op_class_0::SimdMult             0      0.00%     84.50% # Class of committed instruction
system.cpu0.commit.op_class_0::SimdMultAcc            0      0.00%     84.50% # Class of committed instruction
system.cpu0.commit.op_class_0::SimdShift            0      0.00%     84.50% # Class of committed instruction
system.cpu0.commit.op_class_0::SimdShiftAcc            0      0.00%     84.50% # Class of committed instruction
system.cpu0.commit.op_class_0::SimdSqrt             0      0.00%     84.50% # Class of committed instruction
system.cpu0.commit.op_class_0::SimdFloatAdd            0      0.00%     84.50% # Class of committed instruction
system.cpu0.commit.op_class_0::SimdFloatAlu            0      0.00%     84.50% # Class of committed instruction
system.cpu0.commit.op_class_0::SimdFloatCmp            0      0.00%     84.50% # Class of committed instruction
system.cpu0.commit.op_class_0::SimdFloatCvt            0      0.00%     84.50% # Class of committed instruction
system.cpu0.commit.op_class_0::SimdFloatDiv            0      0.00%     84.50% # Class of committed instruction
system.cpu0.commit.op_class_0::SimdFloatMisc            0      0.00%     84.50% # Class of committed instruction
system.cpu0.commit.op_class_0::SimdFloatMult            0      0.00%     84.50% # Class of committed instruction
system.cpu0.commit.op_class_0::SimdFloatMultAcc            0      0.00%     84.50% # Class of committed instruction
system.cpu0.commit.op_class_0::SimdFloatSqrt            0      0.00%     84.50% # Class of committed instruction
system.cpu0.commit.op_class_0::MemRead        1948162      2.96%     87.46% # Class of committed instruction
system.cpu0.commit.op_class_0::MemWrite       1469974      2.23%     89.69% # Class of committed instruction
system.cpu0.commit.op_class_0::FloatMemRead      6163540      9.36%     99.05% # Class of committed instruction
system.cpu0.commit.op_class_0::FloatMemWrite       626960      0.95%    100.00% # Class of committed instruction
system.cpu0.commit.op_class_0::IprAccess            0      0.00%    100.00% # Class of committed instruction
system.cpu0.commit.op_class_0::InstPrefetch            0      0.00%    100.00% # Class of committed instruction
system.cpu0.commit.op_class_0::total         65877316                       # Class of committed instruction
system.cpu0.commit.bw_lim_events              4461825                       # number cycles where commit BW limit reached
system.cpu0.rob.rob_reads                   101150009                       # The number of ROB reads
system.cpu0.rob.rob_writes                  154201955                       # The number of ROB writes
system.cpu0.committedInsts                   37104303                       # Number of Instructions Simulated
system.cpu0.committedOps                     65877316                       # Number of Ops (including micro ops) Simulated
system.cpu0.cpi                              0.822942                       # CPI: Cycles Per Instruction
system.cpu0.cpi_total                        0.822942                       # CPI: Total CPI of All Threads
system.cpu0.ipc                              1.215153                       # IPC: Instructions Per Cycle
system.cpu0.ipc_total                        1.215153                       # IPC: Total IPC of All Threads
system.cpu0.int_regfile_reads                56170553                       # number of integer regfile reads
system.cpu0.int_regfile_writes               28583568                       # number of integer regfile writes
system.cpu0.fp_regfile_reads                 64747323                       # number of floating regfile reads
system.cpu0.fp_regfile_writes                33288833                       # number of floating regfile writes
system.cpu0.cc_regfile_reads                 20604103                       # number of cc regfile reads
system.cpu0.cc_regfile_writes                13410140                       # number of cc regfile writes
system.cpu0.misc_regfile_reads               24140597                       # number of misc regfile reads
system.cpu0.dcache.tags.pwrStateResidencyTicks::UNDEFINED  15267344125                       # Cumulative time (in ticks) in various power states
system.cpu0.dcache.tags.replacements            14268                       # number of replacements
system.cpu0.dcache.tags.tagsinuse                1024                       # Cycle average of tags in use
system.cpu0.dcache.tags.total_refs            1095478                       # Total number of references to valid blocks.
system.cpu0.dcache.tags.sampled_refs            14268                       # Sample count of references to valid blocks.
system.cpu0.dcache.tags.avg_refs            76.778666                       # Average number of references to valid blocks.
system.cpu0.dcache.tags.warmup_cycle                0                       # Cycle when the warmup percentage was hit.
system.cpu0.dcache.tags.occ_blocks::cpu0.data         1024                       # Average occupied blocks per requestor
system.cpu0.dcache.tags.occ_percent::cpu0.data            1                       # Average percentage of cache occupancy
system.cpu0.dcache.tags.occ_percent::total            1                       # Average percentage of cache occupancy
system.cpu0.dcache.tags.occ_task_id_blocks::1024         1024                       # Occupied blocks per task id
system.cpu0.dcache.tags.age_task_id_blocks_1024::0            9                       # Occupied blocks per task id
system.cpu0.dcache.tags.age_task_id_blocks_1024::1           86                       # Occupied blocks per task id
system.cpu0.dcache.tags.age_task_id_blocks_1024::2          665                       # Occupied blocks per task id
system.cpu0.dcache.tags.age_task_id_blocks_1024::3           43                       # Occupied blocks per task id
system.cpu0.dcache.tags.age_task_id_blocks_1024::4          221                       # Occupied blocks per task id
system.cpu0.dcache.tags.occ_task_id_percent::1024            1                       # Percentage of cache occupancy per task id
system.cpu0.dcache.tags.tag_accesses         42407872                       # Number of tag accesses
system.cpu0.dcache.tags.data_accesses        42407872                       # Number of data accesses
system.cpu0.dcache.pwrStateResidencyTicks::UNDEFINED  15267344125                       # Cumulative time (in ticks) in various power states
system.cpu0.dcache.ReadReq_hits::cpu0.data      8487103                       # number of ReadReq hits
system.cpu0.dcache.ReadReq_hits::total        8487103                       # number of ReadReq hits
system.cpu0.dcache.WriteReq_hits::cpu0.data      2096934                       # number of WriteReq hits
system.cpu0.dcache.WriteReq_hits::total       2096934                       # number of WriteReq hits
system.cpu0.dcache.demand_hits::cpu0.data     10584037                       # number of demand (read+write) hits
system.cpu0.dcache.demand_hits::total        10584037                       # number of demand (read+write) hits
system.cpu0.dcache.overall_hits::cpu0.data     10584037                       # number of overall hits
system.cpu0.dcache.overall_hits::total       10584037                       # number of overall hits
system.cpu0.dcache.ReadReq_misses::cpu0.data        14364                       # number of ReadReq misses
system.cpu0.dcache.ReadReq_misses::total        14364                       # number of ReadReq misses
system.cpu0.dcache.demand_misses::cpu0.data        14364                       # number of demand (read+write) misses
system.cpu0.dcache.demand_misses::total         14364                       # number of demand (read+write) misses
system.cpu0.dcache.overall_misses::cpu0.data        14364                       # number of overall misses
system.cpu0.dcache.overall_misses::total        14364                       # number of overall misses
system.cpu0.dcache.ReadReq_miss_latency::cpu0.data   1380300000                       # number of ReadReq miss cycles
system.cpu0.dcache.ReadReq_miss_latency::total   1380300000                       # number of ReadReq miss cycles
system.cpu0.dcache.demand_miss_latency::cpu0.data   1380300000                       # number of demand (read+write) miss cycles
system.cpu0.dcache.demand_miss_latency::total   1380300000                       # number of demand (read+write) miss cycles
system.cpu0.dcache.overall_miss_latency::cpu0.data   1380300000                       # number of overall miss cycles
system.cpu0.dcache.overall_miss_latency::total   1380300000                       # number of overall miss cycles
system.cpu0.dcache.ReadReq_accesses::cpu0.data      8501467                       # number of ReadReq accesses(hits+misses)
system.cpu0.dcache.ReadReq_accesses::total      8501467                       # number of ReadReq accesses(hits+misses)
system.cpu0.dcache.WriteReq_accesses::cpu0.data      2096934                       # number of WriteReq accesses(hits+misses)
system.cpu0.dcache.WriteReq_accesses::total      2096934                       # number of WriteReq accesses(hits+misses)
system.cpu0.dcache.demand_accesses::cpu0.data     10598401                       # number of demand (read+write) accesses
system.cpu0.dcache.demand_accesses::total     10598401                       # number of demand (read+write) accesses
system.cpu0.dcache.overall_accesses::cpu0.data     10598401                       # number of overall (read+write) accesses
system.cpu0.dcache.overall_accesses::total     10598401                       # number of overall (read+write) accesses
system.cpu0.dcache.ReadReq_miss_rate::cpu0.data     0.001690                       # miss rate for ReadReq accesses
system.cpu0.dcache.ReadReq_miss_rate::total     0.001690                       # miss rate for ReadReq accesses
system.cpu0.dcache.demand_miss_rate::cpu0.data     0.001355                       # miss rate for demand accesses
system.cpu0.dcache.demand_miss_rate::total     0.001355                       # miss rate for demand accesses
system.cpu0.dcache.overall_miss_rate::cpu0.data     0.001355                       # miss rate for overall accesses
system.cpu0.dcache.overall_miss_rate::total     0.001355                       # miss rate for overall accesses
system.cpu0.dcache.ReadReq_avg_miss_latency::cpu0.data 96094.402673                       # average ReadReq miss latency
system.cpu0.dcache.ReadReq_avg_miss_latency::total 96094.402673                       # average ReadReq miss latency
system.cpu0.dcache.demand_avg_miss_latency::cpu0.data 96094.402673                       # average overall miss latency
system.cpu0.dcache.demand_avg_miss_latency::total 96094.402673                       # average overall miss latency
system.cpu0.dcache.overall_avg_miss_latency::cpu0.data 96094.402673                       # average overall miss latency
system.cpu0.dcache.overall_avg_miss_latency::total 96094.402673                       # average overall miss latency
system.cpu0.dcache.blocked_cycles::no_mshrs            0                       # number of cycles access was blocked
system.cpu0.dcache.blocked_cycles::no_targets            0                       # number of cycles access was blocked
system.cpu0.dcache.blocked::no_mshrs                0                       # number of cycles access was blocked
system.cpu0.dcache.blocked::no_targets              0                       # number of cycles access was blocked
system.cpu0.dcache.avg_blocked_cycles::no_mshrs          nan                       # average number of cycles each access was blocked
system.cpu0.dcache.avg_blocked_cycles::no_targets          nan                       # average number of cycles each access was blocked
system.cpu0.dcache.writebacks::writebacks        13475                       # number of writebacks
system.cpu0.dcache.writebacks::total            13475                       # number of writebacks
system.cpu0.dcache.ReadReq_mshr_hits::cpu0.data           97                       # number of ReadReq MSHR hits
system.cpu0.dcache.ReadReq_mshr_hits::total           97                       # number of ReadReq MSHR hits
system.cpu0.dcache.demand_mshr_hits::cpu0.data           97                       # number of demand (read+write) MSHR hits
system.cpu0.dcache.demand_mshr_hits::total           97                       # number of demand (read+write) MSHR hits
system.cpu0.dcache.overall_mshr_hits::cpu0.data           97                       # number of overall MSHR hits
system.cpu0.dcache.overall_mshr_hits::total           97                       # number of overall MSHR hits
system.cpu0.dcache.ReadReq_mshr_misses::cpu0.data        14267                       # number of ReadReq MSHR misses
system.cpu0.dcache.ReadReq_mshr_misses::total        14267                       # number of ReadReq MSHR misses
system.cpu0.dcache.demand_mshr_misses::cpu0.data        14267                       # number of demand (read+write) MSHR misses
system.cpu0.dcache.demand_mshr_misses::total        14267                       # number of demand (read+write) MSHR misses
system.cpu0.dcache.overall_mshr_misses::cpu0.data        14267                       # number of overall MSHR misses
system.cpu0.dcache.overall_mshr_misses::total        14267                       # number of overall MSHR misses
system.cpu0.dcache.ReadReq_mshr_miss_latency::cpu0.data   1359592000                       # number of ReadReq MSHR miss cycles
system.cpu0.dcache.ReadReq_mshr_miss_latency::total   1359592000                       # number of ReadReq MSHR miss cycles
[...]
system.l2.tags.sampled_refs                     13833                       # Sample count of references to valid blocks.
system.l2.tags.avg_refs                      0.994867                       # Average number of references to valid blocks.
system.l2.tags.warmup_cycle                         0                       # Cycle when the warmup percentage was hit.
system.l2.tags.occ_blocks::writebacks       84.482234                       # Average occupied blocks per requestor
system.l2.tags.occ_blocks::cpu0.inst        78.959829                       # Average occupied blocks per requestor
system.l2.tags.occ_blocks::cpu0.data     48988.557937                       # Average occupied blocks per requestor
system.l2.tags.occ_percent::writebacks       0.001719                       # Average percentage of cache occupancy
system.l2.tags.occ_percent::cpu0.inst        0.001606                       # Average percentage of cache occupancy
system.l2.tags.occ_percent::cpu0.data        0.996675                       # Average percentage of cache occupancy
system.l2.tags.occ_percent::total                   1                       # Average percentage of cache occupancy
system.l2.tags.occ_task_id_blocks::1024         49152                       # Occupied blocks per task id
system.l2.tags.age_task_id_blocks_1024::0            9                       # Occupied blocks per task id
system.l2.tags.age_task_id_blocks_1024::1           84                       # Occupied blocks per task id
system.l2.tags.age_task_id_blocks_1024::2          823                       # Occupied blocks per task id
system.l2.tags.age_task_id_blocks_1024::3         8146                       # Occupied blocks per task id
system.l2.tags.age_task_id_blocks_1024::4        40090                       # Occupied blocks per task id
system.l2.tags.occ_task_id_percent::1024            1                       # Percentage of cache occupancy per task id
system.l2.tags.tag_accesses                    356253                       # Number of tag accesses
system.l2.tags.data_accesses                   356253                       # Number of data accesses
system.l2.pwrStateResidencyTicks::UNDEFINED  15267344125                       # Cumulative time (in ticks) in various power states
system.l2.WritebackDirty_hits::writebacks        13475                       # number of WritebackDirty hits
system.l2.WritebackDirty_hits::total            13475                       # number of WritebackDirty hits
system.l2.ReadSharedReq_hits::cpu0.data           435                       # number of ReadSharedReq hits
system.l2.ReadSharedReq_hits::total               435                       # number of ReadSharedReq hits
system.l2.demand_hits::cpu0.data                  435                       # number of demand (read+write) hits
system.l2.demand_hits::total                      435                       # number of demand (read+write) hits
system.l2.overall_hits::cpu0.data                 435                       # number of overall hits
system.l2.overall_hits::total                     435                       # number of overall hits
system.l2.ReadSharedReq_misses::cpu0.data        13832                       # number of ReadSharedReq misses
system.l2.ReadSharedReq_misses::total           13832                       # number of ReadSharedReq misses
system.l2.demand_misses::cpu0.data              13832                       # number of demand (read+write) misses
system.l2.demand_misses::total                  13832                       # number of demand (read+write) misses
system.l2.overall_misses::cpu0.data             13832                       # number of overall misses
system.l2.overall_misses::total                 13832                       # number of overall misses
system.l2.ReadSharedReq_miss_latency::cpu0.data   1333616500                       # number of ReadSharedReq miss cycles
system.l2.ReadSharedReq_miss_latency::total   1333616500                       # number of ReadSharedReq miss cycles
system.l2.demand_miss_latency::cpu0.data   1333616500                       # number of demand (read+write) miss cycles
system.l2.demand_miss_latency::total       1333616500                       # number of demand (read+write) miss cycles
system.l2.overall_miss_latency::cpu0.data   1333616500                       # number of overall miss cycles
system.l2.overall_miss_latency::total      1333616500                       # number of overall miss cycles
system.l2.WritebackDirty_accesses::writebacks        13475                       # number of WritebackDirty accesses(hits+misses)
system.l2.WritebackDirty_accesses::total        13475                       # number of WritebackDirty accesses(hits+misses)
system.l2.ReadSharedReq_accesses::cpu0.data        14267                       # number of ReadSharedReq accesses(hits+misses)
system.l2.ReadSharedReq_accesses::total         14267                       # number of ReadSharedReq accesses(hits+misses)
system.l2.demand_accesses::cpu0.data            14267                       # number of demand (read+write) accesses
system.l2.demand_accesses::total                14267                       # number of demand (read+write) accesses
system.l2.overall_accesses::cpu0.data           14267                       # number of overall (read+write) accesses
system.l2.overall_accesses::total               14267                       # number of overall (read+write) accesses
system.l2.ReadSharedReq_miss_rate::cpu0.data     0.969510                       # miss rate for ReadSharedReq accesses
system.l2.ReadSharedReq_miss_rate::total     0.969510                       # miss rate for ReadSharedReq accesses
system.l2.demand_miss_rate::cpu0.data        0.969510                       # miss rate for demand accesses
system.l2.demand_miss_rate::total            0.969510                       # miss rate for demand accesses
system.l2.overall_miss_rate::cpu0.data       0.969510                       # miss rate for overall accesses
system.l2.overall_miss_rate::total           0.969510                       # miss rate for overall accesses
system.l2.ReadSharedReq_avg_miss_latency::cpu0.data 96415.305090                       # average ReadSharedReq miss latency
system.l2.ReadSharedReq_avg_miss_latency::total 96415.305090                       # average ReadSharedReq miss latency
system.l2.demand_avg_miss_latency::cpu0.data 96415.305090                       # average overall miss latency
system.l2.demand_avg_miss_latency::total 96415.305090                       # average overall miss latency
system.l2.overall_avg_miss_latency::cpu0.data 96415.305090                       # average overall miss latency
system.l2.overall_avg_miss_latency::total 96415.305090                       # average overall miss latency
system.l2.blocked_cycles::no_mshrs                  0                       # number of cycles access was blocked
system.l2.blocked_cycles::no_targets                0                       # number of cycles access was blocked
system.l2.blocked::no_mshrs                         0                       # number of cycles access was blocked
system.l2.blocked::no_targets                       0                       # number of cycles access was blocked
system.l2.avg_blocked_cycles::no_mshrs            nan                       # average number of cycles each access was blocked
system.l2.avg_blocked_cycles::no_targets          nan                       # average number of cycles each access was blocked
system.l2.writebacks::writebacks                 2183                       # number of writebacks
system.l2.writebacks::total                      2183                       # number of writebacks
system.l2.ReadSharedReq_mshr_misses::cpu0.data        13832                       # number of ReadSharedReq MSHR misses
system.l2.ReadSharedReq_mshr_misses::total        13832                       # number of ReadSharedReq MSHR misses
system.l2.demand_mshr_misses::cpu0.data         13832                       # number of demand (read+write) MSHR misses
system.l2.demand_mshr_misses::total             13832                       # number of demand (read+write) MSHR misses
system.l2.overall_mshr_misses::cpu0.data        13832                       # number of overall MSHR misses
system.l2.overall_mshr_misses::total            13832                       # number of overall MSHR misses
system.l2.ReadSharedReq_mshr_miss_latency::cpu0.data   1195286500                       # number of ReadSharedReq MSHR miss cycles
system.l2.ReadSharedReq_mshr_miss_latency::total   1195286500                       # number of ReadSharedReq MSHR miss cycles
system.l2.demand_mshr_miss_latency::cpu0.data   1195286500                       # number of demand (read+write) MSHR miss cycles
system.l2.demand_mshr_miss_latency::total   1195286500                       # number of demand (read+write) MSHR miss cycles
system.l2.overall_mshr_miss_latency::cpu0.data   1195286500                       # number of overall MSHR miss cycles
system.l2.overall_mshr_miss_latency::total   1195286500                       # number of overall MSHR miss cycles
system.l2.ReadSharedReq_mshr_miss_rate::cpu0.data     0.969510                       # mshr miss rate for ReadSharedReq accesses
system.l2.ReadSharedReq_mshr_miss_rate::total     0.969510                       # mshr miss rate for ReadSharedReq accesses
system.l2.demand_mshr_miss_rate::cpu0.data     0.969510                       # mshr miss rate for demand accesses
system.l2.demand_mshr_miss_rate::total       0.969510                       # mshr miss rate for demand accesses
system.l2.overall_mshr_miss_rate::cpu0.data     0.969510                       # mshr miss rate for overall accesses
system.l2.overall_mshr_miss_rate::total      0.969510                       # mshr miss rate for overall accesses
system.l2.ReadSharedReq_avg_mshr_miss_latency::cpu0.data 86414.582128                       # average ReadSharedReq mshr miss latency
system.l2.ReadSharedReq_avg_mshr_miss_latency::total 86414.582128                       # average ReadSharedReq mshr miss latency
system.l2.demand_avg_mshr_miss_latency::cpu0.data 86414.582128                       # average overall mshr miss latency
system.l2.demand_avg_mshr_miss_latency::total 86414.582128                       # average overall mshr miss latency
system.l2.overall_avg_mshr_miss_latency::cpu0.data 86414.582128                       # average overall mshr miss latency
system.l2.overall_avg_mshr_miss_latency::total 86414.582128                       # average overall mshr miss latency
system.membus.snoop_filter.tot_requests         27618                       # Total number of requests made to the snoop filter.
system.membus.snoop_filter.hit_single_requests        13786                       # Number of requests hitting in the snoop filter with a single holder of the requested data.
system.membus.snoop_filter.hit_multi_requests            0                       # Number of requests hitting in the snoop filter with multiple (>1) holders of the requested data.
system.membus.snoop_filter.tot_snoops               0                       # Total number of snoops made to the snoop filter.
system.membus.snoop_filter.hit_single_snoops            0                       # Number of snoops hitting in the snoop filter with a single holder of the requested data.
system.membus.snoop_filter.hit_multi_snoops            0                       # Number of snoops hitting in the snoop filter with multiple (>1) holders of the requested data.
system.membus.pwrStateResidencyTicks::UNDEFINED  15267344125                       # Cumulative time (in ticks) in various power states
system.membus.trans_dist::ReadResp              13833                       # Transaction distribution
system.membus.trans_dist::WritebackDirty         2183                       # Transaction distribution
system.membus.trans_dist::CleanEvict            11603                       # Transaction distribution
system.membus.trans_dist::ReadSharedReq         13832                       # Transaction distribution
system.membus.pkt_count_system.l2.mem_side::system.mem_ctrls.port        41451                       # Packet count per connected master and slave (bytes)
system.membus.pkt_count_system.l2.mem_side::total        41451                       # Packet count per connected master and slave (bytes)
system.membus.pkt_count::total                  41451                       # Packet count per connected master and slave (bytes)
system.membus.pkt_size_system.l2.mem_side::system.mem_ctrls.port      1025024                       # Cumulative packet size per connected master and slave (bytes)
system.membus.pkt_size_system.l2.mem_side::total      1025024                       # Cumulative packet size per connected master and slave (bytes)
system.membus.pkt_size::total                 1025024                       # Cumulative packet size per connected master and slave (bytes)
system.membus.snoops                                0                       # Total snoops (count)
system.membus.snoopTraffic                          0                       # Total snoop traffic (bytes)
system.membus.snoop_fanout::samples             13832                       # Request fanout histogram
system.membus.snoop_fanout::mean                    0                       # Request fanout histogram
system.membus.snoop_fanout::stdev                   0                       # Request fanout histogram
system.membus.snoop_fanout::underflows              0      0.00%      0.00% # Request fanout histogram
system.membus.snoop_fanout::0                   13832    100.00%    100.00% # Request fanout histogram
system.membus.snoop_fanout::1                       0      0.00%    100.00% # Request fanout histogram
system.membus.snoop_fanout::overflows               0      0.00%    100.00% # Request fanout histogram
system.membus.snoop_fanout::min_value               0                       # Request fanout histogram
system.membus.snoop_fanout::max_value               0                       # Request fanout histogram
system.membus.snoop_fanout::total               13832                       # Request fanout histogram
system.membus.reqLayer8.occupancy            39835000                       # Layer occupancy (ticks)
system.membus.reqLayer8.utilization               0.3                       # Layer utilization (%)
system.membus.respLayer1.occupancy           73354250                       # Layer occupancy (ticks)
system.membus.respLayer1.utilization              0.5                       # Layer utilization (%)
system.tol2bus.snoop_filter.tot_requests        28535                       # Total number of requests made to the snoop filter.
system.tol2bus.snoop_filter.hit_single_requests        14268                       # Number of requests hitting in the snoop filter with a single holder of the requested data.
system.tol2bus.snoop_filter.hit_multi_requests            0                       # Number of requests hitting in the snoop filter with multiple (>1) holders of the requested data.
system.tol2bus.snoop_filter.tot_snoops             49                       # Total number of snoops made to the snoop filter.
system.tol2bus.snoop_filter.hit_single_snoops           49                       # Number of snoops hitting in the snoop filter with a single holder of the requested data.
system.tol2bus.snoop_filter.hit_multi_snoops            0                       # Number of snoops hitting in the snoop filter with multiple (>1) holders of the requested data.
system.tol2bus.pwrStateResidencyTicks::UNDEFINED  15267344125                       # Cumulative time (in ticks) in various power states
system.tol2bus.trans_dist::ReadResp             14268                       # Transaction distribution
system.tol2bus.trans_dist::WritebackDirty        15658                       # Transaction distribution
system.tol2bus.trans_dist::CleanEvict           12443                       # Transaction distribution
system.tol2bus.trans_dist::ReadSharedReq        14267                       # Transaction distribution
system.tol2bus.pkt_count_system.cpu0.dcache.mem_side::system.l2.cpu_side        42803                       # Packet count per connected master and slave (bytes)
system.tol2bus.pkt_count::total                 42803                       # Packet count per connected master and slave (bytes)
system.tol2bus.pkt_size_system.cpu0.dcache.mem_side::system.l2.cpu_side      1775552                       # Cumulative packet size per connected master and slave (bytes)
system.tol2bus.pkt_size::total                1775552                       # Cumulative packet size per connected master and slave (bytes)
system.tol2bus.snoops                           13833                       # Total snoops (count)
system.tol2bus.snoopTraffic                    139712                       # Total snoop traffic (bytes)
system.tol2bus.snoop_fanout::samples            28100                       # Request fanout histogram
system.tol2bus.snoop_fanout::mean            0.001744                       # Request fanout histogram
system.tol2bus.snoop_fanout::stdev           0.041723                       # Request fanout histogram
system.tol2bus.snoop_fanout::underflows             0      0.00%      0.00% # Request fanout histogram
system.tol2bus.snoop_fanout::0                  28051     99.83%     99.83% # Request fanout histogram
system.tol2bus.snoop_fanout::1                     49      0.17%    100.00% # Request fanout histogram
system.tol2bus.snoop_fanout::2                      0      0.00%    100.00% # Request fanout histogram
system.tol2bus.snoop_fanout::3                      0      0.00%    100.00% # Request fanout histogram
system.tol2bus.snoop_fanout::4                      0      0.00%    100.00% # Request fanout histogram
system.tol2bus.snoop_fanout::5                      0      0.00%    100.00% # Request fanout histogram
system.tol2bus.snoop_fanout::6                      0      0.00%    100.00% # Request fanout histogram
system.tol2bus.snoop_fanout::7                      0      0.00%    100.00% # Request fanout histogram
system.tol2bus.snoop_fanout::8                      0      0.00%    100.00% # Request fanout histogram
system.tol2bus.snoop_fanout::9                      0      0.00%    100.00% # Request fanout histogram
system.tol2bus.snoop_fanout::10                     0      0.00%    100.00% # Request fanout histogram
system.tol2bus.snoop_fanout::11                     0      0.00%    100.00% # Request fanout histogram
system.tol2bus.snoop_fanout::12                     0      0.00%    100.00% # Request fanout histogram
system.tol2bus.snoop_fanout::13                     0      0.00%    100.00% # Request fanout histogram
system.tol2bus.snoop_fanout::14                     0      0.00%    100.00% # Request fanout histogram
system.tol2bus.snoop_fanout::15                     0      0.00%    100.00% # Request fanout histogram
system.tol2bus.snoop_fanout::16                     0      0.00%    100.00% # Request fanout histogram
system.tol2bus.snoop_fanout::overflows              0      0.00%    100.00% # Request fanout histogram
system.tol2bus.snoop_fanout::min_value              0                       # Request fanout histogram
system.tol2bus.snoop_fanout::max_value              1                       # Request fanout histogram
system.tol2bus.snoop_fanout::total              28100                       # Request fanout histogram
system.tol2bus.reqLayer0.occupancy           27742500                       # Layer occupancy (ticks)
system.tol2bus.reqLayer0.utilization              0.2                       # Layer utilization (%)
system.tol2bus.respLayer1.occupancy          21402000                       # Layer occupancy (ticks)
system.tol2bus.respLayer1.utilization             0.1                       # Layer utilization (%)

---------- End Simulation Statistics   ----------
