
---------- Begin Simulation Statistics ----------
sim_seconds                                  0.015267                       # Number of seconds simulated
sim_ticks                                 15267344125                       # Number of ticks simulated
final_tick                               3206142266250                       # Number of ticks from beginning of simulation (restored from checkpoints and never reset)
sim_freq                                 1000000000000                       # Frequency of simulated ticks
host_inst_rate                               92444855                       # Simulator instruction rate (inst/s)
host_op_rate                                171380138                       # Simulator op (including micro ops) rate (op/s)
host_tick_rate                              251447221                       # Simulator tick rate (ticks/s)
host_mem_usage                                2332528                       # Number of bytes of host memory used
host_seconds                                    60.72                       # Real time elapsed on the host
sim_insts                                  5613054772                       # Number of instructions simulated
sim_ops                                   10405838645                       # Number of ops (including micro ops) simulated
system.voltage_domain.voltage                       1                       # Voltage in Volts
system.clk_domain.clock                          1000                       # Clock period in ticks
system.mem_ctrls.pwrStateResidencyTicks::UNDEFINED  15267344125                       # Cumulative time (in ticks) in various power states
system.mem_ctrls.bytes_read::cpu0.data       10006400                       # Number of bytes read from this memory
system.mem_ctrls.bytes_read::total           10006400                       # Number of bytes read from this memory
system.mem_ctrls.bytes_written::writebacks        49792                       # Number of bytes written to this memory
system.mem_ctrls.bytes_written::total           49792                       # Number of bytes written to this memory
system.mem_ctrls.num_reads::cpu0.data          156350                       # Number of read requests responded to by this memory
system.mem_ctrls.num_reads::total              156350                       # Number of read requests responded to by this memory
system.mem_ctrls.num_writes::writebacks           778                       # Number of write requests responded to by this memory
system.mem_ctrls.num_writes::total                778                       # Number of write requests responded to by this memory
system.mem_ctrls.bw_read::cpu0.data         655411964                       # Total read bandwidth from this memory (bytes/s)
system.mem_ctrls.bw_read::total             655411964                       # Total read bandwidth from this memory (bytes/s)
system.mem_ctrls.bw_write::writebacks         3261340                       # Write bandwidth from this memory (bytes/s)
system.mem_ctrls.bw_write::total              3261340                       # Write bandwidth from this memory (bytes/s)
system.mem_ctrls.bw_total::writebacks         3261340                       # Total bandwidth to/from this memory (bytes/s)
system.mem_ctrls.bw_total::cpu0.data        655411964                       # Total bandwidth to/from this memory (bytes/s)
system.mem_ctrls.bw_total::total            658673304                       # Total bandwidth to/from this memory (bytes/s)
system.mem_ctrls.readReqs                      156350                       # Number of read requests accepted
system.mem_ctrls.writeReqs                        778                       # Number of write requests accepted
system.mem_ctrls.readBursts                    156350                       # Number of DRAM read bursts, including those serviced by the write queue
system.mem_ctrls.writeBursts                      778                       # Number of DRAM write bursts, including those merged in the write queue
system.mem_ctrls.bytesReadDRAM                9999808                       # Total number of bytes read from DRAM
system.mem_ctrls.bytesReadWrQ                    6592                       # Total number of bytes read from write queue
system.mem_ctrls.bytesWritten                   49280                       # Total number of bytes written to DRAM
system.mem_ctrls.bytesReadSys                10006400                       # Total read bytes from the system interface side
system.mem_ctrls.bytesWrittenSys                49792                       # Total written bytes from the system interface side
system.mem_ctrls.servicedByWrQ                    103                       # Number of DRAM read bursts serviced by the write queue
system.mem_ctrls.mergedWrBursts                     0                       # Number of DRAM write bursts merged with an existing one
system.mem_ctrls.neitherReadNorWriteReqs            0                       # Number of requests that are neither read nor write
system.mem_ctrls.perBankRdBursts::0              9135                       # Per bank write bursts
system.mem_ctrls.perBankRdBursts::1              8736                       # Per bank write bursts
system.mem_ctrls.perBankRdBursts::2              8943                       # Per bank write bursts
system.mem_ctrls.perBankRdBursts::3             10181                       # Per bank write bursts
system.mem_ctrls.perBankRdBursts::4             11013                       # Per bank write bursts
system.mem_ctrls.perBankRdBursts::5             10264                       # Per bank write bursts
system.mem_ctrls.perBankRdBursts::6             10209                       # Per bank write bursts
system.mem_ctrls.perBankRdBursts::7              9895                       # Per bank write bursts
system.mem_ctrls.perBankRdBursts::8             10089                       # Per bank write bursts
system.mem_ctrls.perBankRdBursts::9              9819                       # Per bank write bursts
system.mem_ctrls.perBankRdBursts::10            10131                       # Per bank write bursts
system.mem_ctrls.perBankRdBursts::11             9824                       # Per bank write bursts
system.mem_ctrls.perBankRdBursts::12             9852                       # Per bank write bursts
system.mem_ctrls.perBankRdBursts::13             9588                       # Per bank write bursts
system.mem_ctrls.perBankRdBursts::14             9282                       # Per bank write bursts
system.mem_ctrls.perBankRdBursts::15             9286                       # Per bank write bursts
system.mem_ctrls.perBankWrBursts::0                 3                       # Per bank write bursts
system.mem_ctrls.perBankWrBursts::1                 0                       # Per bank write bursts
system.mem_ctrls.perBankWrBursts::2                 0                       # Per bank write bursts
system.mem_ctrls.perBankWrBursts::3                80                       # Per bank write bursts
system.mem_ctrls.perBankWrBursts::4                10                       # Per bank write bursts
system.mem_ctrls.perBankWrBursts::5                 0                       # Per bank write bursts
system.mem_ctrls.perBankWrBursts::6                 0                       # Per bank write bursts
system.mem_ctrls.perBankWrBursts::7                 0                       # Per bank write bursts
system.mem_ctrls.perBankWrBursts::8                65                       # Per bank write bursts
system.mem_ctrls.perBankWrBursts::9                10                       # Per bank write bursts
system.mem_ctrls.perBankWrBursts::10               44                       # Per bank write bursts
system.mem_ctrls.perBankWrBursts::11              115                       # Per bank write bursts
system.mem_ctrls.perBankWrBursts::12              157                       # Per bank write bursts
system.mem_ctrls.perBankWrBursts::13              124                       # Per bank write bursts
system.mem_ctrls.perBankWrBursts::14               94                       # Per bank write bursts
system.mem_ctrls.perBankWrBursts::15               68                       # Per bank write bursts
system.mem_ctrls.numRdRetry                         0                       # Number of times read queue was full causing retry
system.mem_ctrls.numWrRetry                         0                       # Number of times write queue was full causing retry
system.mem_ctrls.totGap                   15267335500                       # Total gap between requests
system.mem_ctrls.readPktSize::0                     0                       # Read request sizes (log2)
system.mem_ctrls.readPktSize::1                     0                       # Read request sizes (log2)
system.mem_ctrls.readPktSize::2                     0                       # Read request sizes (log2)
system.mem_ctrls.readPktSize::3                     0                       # Read request sizes (log2)
system.mem_ctrls.readPktSize::4                     0                       # Read request sizes (log2)
system.mem_ctrls.readPktSize::5                     0                       # Read request sizes (log2)
system.mem_ctrls.readPktSize::6                156350                       # Read request sizes (log2)
system.mem_ctrls.writePktSize::0                    0                       # Write request sizes (log2)
system.mem_ctrls.writePktSize::1                    0                       # Write request sizes (log2)
system.mem_ctrls.writePktSize::2                    0                       # Write request sizes (log2)
system.mem_ctrls.writePktSize::3                    0                       # Write request sizes (log2)
system.mem_ctrls.writePktSize::4                    0                       # Write request sizes (log2)
system.mem_ctrls.writePktSize::5                    0                       # Write request sizes (log2)
system.mem_ctrls.writePktSize::6                  778                       # Write request sizes (log2)
system.mem_ctrls.rdQLenPdf::0                  121727                       # What read queue length does an incoming req see
system.mem_ctrls.rdQLenPdf::1                   32077                       # What read queue length does an incoming req see
system.mem_ctrls.rdQLenPdf::2                    2357                       # What read queue length does an incoming req see
system.mem_ctrls.rdQLenPdf::3                      86                       # What read queue length does an incoming req see
system.mem_ctrls.rdQLenPdf::4                       0                       # What read queue length does an incoming req see
system.mem_ctrls.rdQLenPdf::5                       0                       # What read queue length does an incoming req see
system.mem_ctrls.rdQLenPdf::6                       0                       # What read queue length does an incoming req see
system.mem_ctrls.rdQLenPdf::7                       0                       # What read queue length does an incoming req see
system.mem_ctrls.rdQLenPdf::8                       0                       # What read queue length does an incoming req see
system.mem_ctrls.rdQLenPdf::9                       0                       # What read queue length does an incoming req see
system.mem_ctrls.rdQLenPdf::10                      0                       # What read queue length does an incoming req see
system.mem_ctrls.rdQLenPdf::11                      0                       # What read queue length does an incoming req see
system.mem_ctrls.rdQLenPdf::12                      0                       # What read queue length does an incoming req see
system.mem_ctrls.rdQLenPdf::13                      0                       # What read queue length does an incoming req see
system.mem_ctrls.rdQLenPdf::14                      0                       # What read queue length does an incoming req see
system.mem_ctrls.rdQLenPdf::15                      0                       # What read queue length does an incoming req see
system.mem_ctrls.rdQLenPdf::16                      0                       # What read queue length does an incoming req see
system.mem_ctrls.rdQLenPdf::17                      0                       # What read queue length does an incoming req see
system.mem_ctrls.rdQLenPdf::18                      0                       # What read queue length does an incoming req see
system.mem_ctrls.rdQLenPdf::19                      0                       # What read queue length does an incoming req see
system.mem_ctrls.rdQLenPdf::20                      0                       # What read queue length does an incoming req see
system.mem_ctrls.rdQLenPdf::21                      0                       # What read queue length does an incoming req see
system.mem_ctrls.rdQLenPdf::22                      0                       # What read queue length does an incoming req see
system.mem_ctrls.rdQLenPdf::23                      0                       # What read queue length does an incoming req see
system.mem_ctrls.rdQLenPdf::24                      0                       # What read queue length does an incoming req see
system.mem_ctrls.rdQLenPdf::25                      0                       # What read queue length does an incoming req see
system.mem_ctrls.rdQLenPdf::26                      0                       # What read queue length does an incoming req see
system.mem_ctrls.rdQLenPdf::27                      0                       # What read queue length does an incoming req see
system.mem_ctrls.rdQLenPdf::28                      0                       # What read queue length does an incoming req see
system.mem_ctrls.rdQLenPdf::29                      0                       # What read queue length does an incoming req see
system.mem_ctrls.rdQLenPdf::30                      0                       # What read queue length does an incoming req see
system.mem_ctrls.rdQLenPdf::31                      0                       # What read queue length does an incoming req see
system.mem_ctrls.wrQLenPdf::0                       0                       # What write queue length does an incoming req see
system.mem_ctrls.wrQLenPdf::1                       0                       # What write queue length does an incoming req see
system.mem_ctrls.wrQLenPdf::2                       0                       # What write queue length does an incoming req see
system.mem_ctrls.wrQLenPdf::3                       0                       # What write queue length does an incoming req see
system.mem_ctrls.wrQLenPdf::4                       0                       # What write queue length does an incoming req see
system.mem_ctrls.wrQLenPdf::5                       0                       # What write queue length does an incoming req see
system.mem_ctrls.wrQLenPdf::6                       0                       # What write queue length does an incoming req see
system.mem_ctrls.wrQLenPdf::7                       0                       # What write queue length does an incoming req see
system.mem_ctrls.wrQLenPdf::8                       0                       # What write queue length does an incoming req see
system.mem_ctrls.wrQLenPdf::9                       0                       # What write queue length does an incoming req see
system.mem_ctrls.wrQLenPdf::10                      0                       # What write queue length does an incoming req see
system.mem_ctrls.wrQLenPdf::11                      0                       # What write queue length does an incoming req see
system.mem_ctrls.wrQLenPdf::12                      0                       # What write queue length does an incoming req see
system.mem_ctrls.wrQLenPdf::13                      0                       # What write queue length does an incoming req see
system.mem_ctrls.wrQLenPdf::14                      0                       # What write queue length does an incoming req see
system.mem_ctrls.wrQLenPdf::15                      1                       # What write queue length does an incoming req see
system.mem_ctrls.wrQLenPdf::16                      1                       # What write queue length does an incoming req see
system.mem_ctrls.wrQLenPdf::17                     47                       # What write queue length does an incoming req see
system.mem_ctrls.wrQLenPdf::18                     48                       # What write queue length does an incoming req see
system.mem_ctrls.wrQLenPdf::19                     48                       # What write queue length does an incoming req see
system.mem_ctrls.wrQLenPdf::20                     48                       # What write queue length does an incoming req see
system.mem_ctrls.wrQLenPdf::21                     48                       # What write queue length does an incoming req see
system.mem_ctrls.wrQLenPdf::22                     48                       # What write queue length does an incoming req see
system.mem_ctrls.wrQLenPdf::23                     49                       # What write queue length does an incoming req see
system.mem_ctrls.wrQLenPdf::24                     49                       # What write queue length does an incoming req see
system.mem_ctrls.wrQLenPdf::25                     49                       # What write queue length does an incoming req see
system.mem_ctrls.wrQLenPdf::26                     49                       # What write queue length does an incoming req see
system.mem_ctrls.wrQLenPdf::27                     49                       # What write queue length does an incoming req see
system.mem_ctrls.wrQLenPdf::28                     49                       # What write queue length does an incoming req see
system.mem_ctrls.wrQLenPdf::29                     49                       # What write queue length does an incoming req see
system.mem_ctrls.wrQLenPdf::30                     49                       # What write queue length does an incoming req see
system.mem_ctrls.wrQLenPdf::31                     48                       # What write queue length does an incoming req see
system.mem_ctrls.wrQLenPdf::32                     49                       # What write queue length does an incoming req see
system.mem_ctrls.wrQLenPdf::33                      0                       # What write queue length does an incoming req see
system.mem_ctrls.wrQLenPdf::34                      0                       # What write queue length does an incoming req see
system.mem_ctrls.wrQLenPdf::35                      0                       # What write queue length does an incoming req see
system.mem_ctrls.wrQLenPdf::36                      0                       # What write queue length does an incoming req see
system.mem_ctrls.wrQLenPdf::37                      0                       # What write queue length does an incoming req see
system.mem_ctrls.wrQLenPdf::38                      0                       # What write queue length does an incoming req see
system.mem_ctrls.wrQLenPdf::39                      0                       # What write queue length does an incoming req see
system.mem_ctrls.wrQLenPdf::40                      0                       # What write queue length does an incoming req see
system.mem_ctrls.wrQLenPdf::41                      0                       # What write queue length does an incoming req see
system.mem_ctrls.wrQLenPdf::42                      0                       # What write queue length does an incoming req see
system.mem_ctrls.wrQLenPdf::43                      0                       # What write queue length does an incoming req see
system.mem_ctrls.wrQLenPdf::44                      0                       # What write queue length does an incoming req see
system.mem_ctrls.wrQLenPdf::45                      0                       # What write queue length does an incoming req see
system.mem_ctrls.wrQLenPdf::46                      0                       # What write queue length does an incoming req see
system.mem_ctrls.wrQLenPdf::47                      0                       # What write queue length does an incoming req see
system.mem_ctrls.wrQLenPdf::48                      0                       # What write queue length does an incoming req see
system.mem_ctrls.wrQLenPdf::49                      0                       # What write queue length does an incoming req see
system.mem_ctrls.wrQLenPdf::50                      0                       # What write queue length does an incoming req see
system.mem_ctrls.wrQLenPdf::51                      0                       # What write queue length does an incoming req see
system.mem_ctrls.wrQLenPdf::52                      0                       # What write queue length does an incoming req see
system.mem_ctrls.wrQLenPdf::53                      0                       # What write queue length does an incoming req see
system.mem_ctrls.wrQLenPdf::54                      0                       # What write queue length does an incoming req see
system.mem_ctrls.wrQLenPdf::55                      0                       # What write queue length does an incoming req see
system.mem_ctrls.wrQLenPdf::56                      0                       # What write queue length does an incoming req see
system.mem_ctrls.wrQLenPdf::57                      0                       # What write queue length does an incoming req see
system.mem_ctrls.wrQLenPdf::58                      0                       # What write queue length does an incoming req see
system.mem_ctrls.wrQLenPdf::59                      0                       # What write queue length does an incoming req see
system.mem_ctrls.wrQLenPdf::60                      0                       # What write queue length does an incoming req see
system.mem_ctrls.wrQLenPdf::61                      0                       # What write queue length does an incoming req see
system.mem_ctrls.wrQLenPdf::62                      0                       # What write queue length does an incoming req see
system.mem_ctrls.wrQLenPdf::63                      0                       # What write queue length does an incoming req see
system.mem_ctrls.bytesPerActivate::samples        91056                       # Bytes accessed per row activation
system.mem_ctrls.bytesPerActivate::mean    110.360921                       # Bytes accessed per row activation
system.mem_ctrls.bytesPerActivate::gmean    96.166601                       # Bytes accessed per row activation
system.mem_ctrls.bytesPerActivate::stdev    66.418663                       # Bytes accessed per row activation
system.mem_ctrls.bytesPerActivate::0-127        50421     55.37%     55.37% # Bytes accessed per row activation
system.mem_ctrls.bytesPerActivate::128-255        34603     38.00%     93.38% # Bytes accessed per row activation
system.mem_ctrls.bytesPerActivate::256-383         5348      5.87%     99.25% # Bytes accessed per row activation
system.mem_ctrls.bytesPerActivate::384-511          593      0.65%     99.90% # Bytes accessed per row activation
system.mem_ctrls.bytesPerActivate::512-639           60      0.07%     99.97% # Bytes accessed per row activation
system.mem_ctrls.bytesPerActivate::640-767           13      0.01%     99.98% # Bytes accessed per row activation
system.mem_ctrls.bytesPerActivate::768-895           10      0.01%     99.99% # Bytes accessed per row activation
system.mem_ctrls.bytesPerActivate::896-1023            5      0.01%    100.00% # Bytes accessed per row activation
system.mem_ctrls.bytesPerActivate::1024-1151            3      0.00%    100.00% # Bytes accessed per row activation
system.mem_ctrls.bytesPerActivate::total        91056                       # Bytes accessed per row activation
system.mem_ctrls.rdPerTurnAround::samples           48                       # Reads before turning the bus around for writes
system.mem_ctrls.rdPerTurnAround::mean    3263.791667                       # Reads before turning the bus around for writes
system.mem_ctrls.rdPerTurnAround::gmean   3176.452021                       # Reads before turning the bus around for writes
system.mem_ctrls.rdPerTurnAround::stdev    758.718796                       # Reads before turning the bus around for writes
system.mem_ctrls.rdPerTurnAround::1536-1791            1      2.08%      2.08% # Reads before turning the bus around for writes
system.mem_ctrls.rdPerTurnAround::1792-2047            2      4.17%      6.25% # Reads before turning the bus around for writes
system.mem_ctrls.rdPerTurnAround::2048-2303            4      8.33%     14.58% # Reads before turning the bus around for writes
system.mem_ctrls.rdPerTurnAround::2304-2559            1      2.08%     16.67% # Reads before turning the bus around for writes
system.mem_ctrls.rdPerTurnAround::2560-2815            3      6.25%     22.92% # Reads before turning the bus around for writes
system.mem_ctrls.rdPerTurnAround::2816-3071            8     16.67%     39.58% # Reads before turning the bus around for writes
system.mem_ctrls.rdPerTurnAround::3072-3327            7     14.58%     54.17% # Reads before turning the bus around for writes
system.mem_ctrls.rdPerTurnAround::3328-3583            8     16.67%     70.83% # Reads before turning the bus around for writes
system.mem_ctrls.rdPerTurnAround::3584-3839            5     10.42%     81.25% # Reads before turning the bus around for writes
system.mem_ctrls.rdPerTurnAround::3840-4095            3      6.25%     87.50% # Reads before turning the bus around for writes
system.mem_ctrls.rdPerTurnAround::4096-4351            2      4.17%     91.67% # Reads before turning the bus around for writes
system.mem_ctrls.rdPerTurnAround::4352-4607            1      2.08%     93.75% # Reads before turning the bus around for writes
system.mem_ctrls.rdPerTurnAround::4608-4863            1      2.08%     95.83% # Reads before turning the bus around for writes
system.mem_ctrls.rdPerTurnAround::4864-5119            1      2.08%     97.92% # Reads before turning the bus around for writes
system.mem_ctrls.rdPerTurnAround::5120-5375            1      2.08%    100.00% # Reads before turning the bus around for writes
system.mem_ctrls.rdPerTurnAround::total            48                       # Reads before turning the bus around for writes
system.mem_ctrls.wrPerTurnAround::samples           48                       # Writes before turning the bus around for reads
system.mem_ctrls.wrPerTurnAround::mean      16.041667                       # Writes before turning the bus around for reads
system.mem_ctrls.wrPerTurnAround::gmean     16.039309                       # Writes before turning the bus around for reads
system.mem_ctrls.wrPerTurnAround::stdev      0.288675                       # Writes before turning the bus around for reads
system.mem_ctrls.wrPerTurnAround::16               47     97.92%     97.92% # Writes before turning the bus around for reads
system.mem_ctrls.wrPerTurnAround::18                1      2.08%    100.00% # Writes before turning the bus around for reads
system.mem_ctrls.wrPerTurnAround::total            48                       # Writes before turning the bus around for reads
system.mem_ctrls.totQLat                   4053436500                       # Total ticks spent queuing
system.mem_ctrls.totMemAccLat              6983067750                       # Total ticks spent from burst creation until serviced by the DRAM
system.mem_ctrls.totBusLat                  781235000                       # Total ticks spent in databus transfers
system.mem_ctrls.avgQLat                     25942.49                       # Average queueing delay per DRAM burst
system.mem_ctrls.avgBusLat                    5000.00                       # Average bus latency per DRAM burst
system.mem_ctrls.avgMemAccLat                44692.49                       # Average memory access latency per DRAM burst
system.mem_ctrls.avgRdBW                       654.98                       # Average DRAM read bandwidth in MiByte/s
system.mem_ctrls.avgWrBW                         3.23                       # Average achieved write bandwidth in MiByte/s
system.mem_ctrls.avgRdBWSys                    655.41                       # Average system read bandwidth in MiByte/s
system.mem_ctrls.avgWrBWSys                      3.26                       # Average system write bandwidth in MiByte/s
system.mem_ctrls.peakBW                      12800.00                       # Theoretical peak bandwidth in MiByte/s
system.mem_ctrls.busUtil                         5.14                       # Data bus utilization in percentage
system.mem_ctrls.busUtilRead                     5.12                       # Data bus utilization in percentage for reads
system.mem_ctrls.busUtilWrite                    0.03                       # Data bus utilization in percentage for writes
system.mem_ctrls.avgRdQLen                       1.26                       # Average read queue length when enqueuing
system.mem_ctrls.avgWrQLen                      25.20                       # Average write queue length when enqueuing
system.mem_ctrls.readRowHits                    65339                       # Number of row buffer hits during reads
system.mem_ctrls.writeRowHits                     622                       # Number of row buffer hits during writes
system.mem_ctrls.readRowHitRate                 41.82                       # Row buffer hit rate for reads
system.mem_ctrls.writeRowHitRate                79.95                       # Row buffer hit rate for writes
system.mem_ctrls.avgGap                      97164.96                       # Average gap between requests
system.mem_ctrls.pageHitRate                    42.01                       # Row buffer hit rate, read and write combined
system.mem_ctrls_0.actEnergy                325441200                       # Energy for activate commands per rank (pJ)
system.mem_ctrls_0.preEnergy                172976100                       # Energy for precharge commands per rank (pJ)
system.mem_ctrls_0.readEnergy               559604640                       # Energy for read commands per rank (pJ)
system.mem_ctrls_0.writeEnergy                 485460                       # Energy for write commands per rank (pJ)
system.mem_ctrls_0.refreshEnergy         1207767600.000000                       # Energy for refresh commands per rank (pJ)
system.mem_ctrls_0.actBackEnergy           1430974740                       # Energy for active background per rank (pJ)
system.mem_ctrls_0.preBackEnergy             25352640                       # Energy for precharge background per rank (pJ)
system.mem_ctrls_0.actPowerDownEnergy      5258165640                       # Energy for active power-down per rank (pJ)
system.mem_ctrls_0.prePowerDownEnergy       201742560                       # Energy for precharge power-down per rank (pJ)
system.mem_ctrls_0.selfRefreshEnergy          4389000                       # Energy for self refresh per rank (pJ)
system.mem_ctrls_0.totalEnergy             9186899580                       # Total energy per rank (pJ)
system.mem_ctrls_0.averagePower            601.735279                       # Core power per rank (mW)
system.mem_ctrls_0.totalIdleTime          12062806125                       # Total Idle time Per DRAM Rank
system.mem_ctrls_0.memoryStateTime::IDLE     11244000                       # Time in different power states
system.mem_ctrls_0.memoryStateTime::REF     510936000                       # Time in different power states
system.mem_ctrls_0.memoryStateTime::SREF      6782750                       # Time in different power states
system.mem_ctrls_0.memoryStateTime::PRE_PDN    525342250                       # Time in different power states
system.mem_ctrls_0.memoryStateTime::ACT    2682326500                       # Time in different power states
system.mem_ctrls_0.memoryStateTime::ACT_PDN  11530712625                       # Time in different power states
system.mem_ctrls_1.actEnergy                324698640                       # Energy for activate commands per rank (pJ)
system.mem_ctrls_1.preEnergy                172581420                       # Energy for precharge commands per rank (pJ)
system.mem_ctrls_1.readEnergy               555998940                       # Energy for read commands per rank (pJ)
system.mem_ctrls_1.writeEnergy                3533940                       # Energy for write commands per rank (pJ)
system.mem_ctrls_1.refreshEnergy         1205309040.000000                       # Energy for refresh commands per rank (pJ)
system.mem_ctrls_1.actBackEnergy           1424602710                       # Energy for active background per rank (pJ)
system.mem_ctrls_1.preBackEnergy             24566400                       # Energy for precharge background per rank (pJ)
system.mem_ctrls_1.actPowerDownEnergy      5286970020                       # Energy for active power-down per rank (pJ)
system.mem_ctrls_1.prePowerDownEnergy       186242880                       # Energy for precharge power-down per rank (pJ)
system.mem_ctrls_1.selfRefreshEnergy                0                       # Energy for self refresh per rank (pJ)
system.mem_ctrls_1.totalEnergy             9184503990                       # Total energy per rank (pJ)
system.mem_ctrls_1.averagePower            601.578370                       # Core power per rank (mW)
system.mem_ctrls_1.totalIdleTime          12078281625                       # Total Idle time Per DRAM Rank
system.mem_ctrls_1.memoryStateTime::IDLE      9894000                       # Time in different power states
system.mem_ctrls_1.memoryStateTime::REF     509866000                       # Time in different power states
system.mem_ctrls_1.memoryStateTime::SREF            0                       # Time in different power states
system.mem_ctrls_1.memoryStateTime::PRE_PDN    485372000                       # Time in different power states
system.mem_ctrls_1.memoryStateTime::ACT    2668661500                       # Time in different power states
system.mem_ctrls_1.memoryStateTime::ACT_PDN  11593550625                       # Time in different power states
system.pwrStateResidencyTicks::UNDEFINED  15267344125                       # Cumulative time (in ticks) in various power states
system.cpu0.branchPred.lookups                2665043                       # Number of BP lookups
system.cpu0.branchPred.condPredicted          2665043                       # Number of conditional branches predicted
system.cpu0.branchPred.condIncorrect           119601                       # Number of conditional branches incorrect
system.cpu0.branchPred.BTBLookups             2052313                       # Number of BTB lookups
system.cpu0.branchPred.BTBHits                      0                       # Number of BTB hits
system.cpu0.branchPred.BTBCorrect                   0                       # Number of correct BTB predictions (this stat may not work properly.
system.cpu0.branchPred.BTBHitPct             0.000000                       # BTB Hit Percentage
system.cpu0.branchPred.usedRAS                  89305                       # Number of times the RAS was used to get a target.
system.cpu0.branchPred.RASInCorrect             12915                       # Number of incorrect RAS predictions.
system.cpu0.branchPred.indirectLookups        2052313                       # Number of indirect predictor lookups.
system.cpu0.branchPred.indirectHits           1116974                       # Number of indirect target hits.
system.cpu0.branchPred.indirectMisses          935339                       # Number of indirect misses.
system.cpu0.branchPredindirectMispredicted        41288                       # Number of mispredicted indirect branches.
system.cpu_voltage_domain.voltage                   1                       # Voltage in Volts
system.cpu_clk_domain.clock                       500                       # Clock period in ticks
system.cpu0.dtb.walker.pwrStateResidencyTicks::UNDEFINED  15267344125                       # Cumulative time (in ticks) in various power states
system.cpu0.dtb.rdAccesses                    1309554                       # TLB accesses on read requests
system.cpu0.dtb.wrAccesses                     112747                       # TLB accesses on write requests
system.cpu0.dtb.rdMisses                       263754                       # TLB misses on read requests
system.cpu0.dtb.wrMisses                         1968                       # TLB misses on write requests
system.cpu0.apic_clk_domain.clock                8000                       # Clock period in ticks
system.cpu0.interrupts.pwrStateResidencyTicks::UNDEFINED  15267344125                       # Cumulative time (in ticks) in various power states
system.cpu0.itb.walker.pwrStateResidencyTicks::UNDEFINED  15267344125                       # Cumulative time (in ticks) in various power states
system.cpu0.itb.rdAccesses                          0                       # TLB accesses on read requests
system.cpu0.itb.wrAccesses                    2207124                       # TLB accesses on write requests
system.cpu0.itb.rdMisses                            0                       # TLB misses on read requests
system.cpu0.itb.wrMisses                         6809                       # TLB misses on write requests
system.cpu0.workload.numSyscalls                    0                       # Number of system calls
system.cpu0.pwrStateResidencyTicks::ON    15267344125                       # Cumulative time (in ticks) in various power states
system.cpu0.numCycles                        30534688                       # number of cpu cycles simulated
system.cpu0.numWorkItemsStarted                     0                       # number of work items this cpu started
system.cpu0.numWorkItemsCompleted                   0                       # number of work items this cpu completed
system.cpu0.fetch.icacheStallCycles           2263520                       # Number of cycles fetch is stalled on an Icache miss
system.cpu0.fetch.Insts                       7903206                       # Number of instructions fetch has processed
system.cpu0.fetch.Branches                    2665043                       # Number of branches that fetch encountered
system.cpu0.fetch.predictedBranches           1206279                       # Number of branches that fetch has predicted taken
system.cpu0.fetch.Cycles                     28041503                       # Number of cycles fetch has run and was not squashing or blocked
system.cpu0.fetch.SquashCycles                 243346                       # Number of cycles fetch has spent squashing
system.cpu0.fetch.TlbCycles                      2804                       # Number of cycles fetch has spent waiting for tlb
system.cpu0.fetch.MiscStallCycles                1420                       # Number of cycles fetch has spent waiting on interrupts, or bad addresses, or out of MSHRs
system.cpu0.fetch.PendingTrapStallCycles        58571                       # Number of stall cycles due to pending traps
system.cpu0.fetch.CacheLines                  2200315                       # Number of cache lines fetched
system.cpu0.fetch.IcacheSquashes                18313                       # Number of outstanding Icache misses that were squashed
system.cpu0.fetch.ItlbSquashes                     13                       # Number of outstanding ITLB misses that were squashed
system.cpu0.fetch.rateDist::samples          30489491                       # Number of instructions fetched each cycle (Total)
system.cpu0.fetch.rateDist::mean             0.522134                       # Number of instructions fetched each cycle (Total)
system.cpu0.fetch.rateDist::stdev            1.795627                       # Number of instructions fetched each cycle (Total)
system.cpu0.fetch.rateDist::underflows              0      0.00%      0.00% # Number of instructions fetched each cycle (Total)
system.cpu0.fetch.rateDist::0                27457399     90.06%     90.06% # Number of instructions fetched each cycle (Total)
system.cpu0.fetch.rateDist::1                   33097      0.11%     90.16% # Number of instructions fetched each cycle (Total)
system.cpu0.fetch.rateDist::2                 1057557      3.47%     93.63% # Number of instructions fetched each cycle (Total)
system.cpu0.fetch.rateDist::3                   51282      0.17%     93.80% # Number of instructions fetched each cycle (Total)
system.cpu0.fetch.rateDist::4                  209577      0.69%     94.49% # Number of instructions fetched each cycle (Total)
system.cpu0.fetch.rateDist::5                  113933      0.37%     94.86% # Number of instructions fetched each cycle (Total)
system.cpu0.fetch.rateDist::6                  140501      0.46%     95.32% # Number of instructions fetched each cycle (Total)
system.cpu0.fetch.rateDist::7                   42602      0.14%     95.46% # Number of instructions fetched each cycle (Total)
system.cpu0.fetch.rateDist::8                 1383543      4.54%    100.00% # Number of instructions fetched each cycle (Total)
system.cpu0.fetch.rateDist::overflows               0      0.00%    100.00% # Number of instructions fetched each cycle (Total)
system.cpu0.fetch.rateDist::min_value               0                       # Number of instructions fetched each cycle (Total)
system.cpu0.fetch.rateDist::max_value               8                       # Number of instructions fetched each cycle (Total)
system.cpu0.fetch.rateDist::total            30489491                       # Number of instructions fetched each cycle (Total)
system.cpu0.fetch.branchRate                 0.087279                       # Number of branch fetches per cycle
system.cpu0.fetch.rate                       0.258827                       # Number of inst fetches per cycle
system.cpu0.decode.IdleCycles                 1170103                       # Number of cycles decode is idle
system.cpu0.decode.BlockedCycles             27147395                       # Number of cycles decode is blocked
system.cpu0.decode.RunCycles                  1555966                       # Number of cycles decode is running
system.cpu0.decode.UnblockCycles               494354                       # Number of cycles decode is unblocking
system.cpu0.decode.SquashCycles                121673                       # Number of cycles decode is squashing
system.cpu0.decode.DecodedInsts              13341211                       # Number of instructions handled by decode
system.cpu0.rename.SquashCycles                121673                       # Number of cycles rename is squashing
system.cpu0.rename.IdleCycles                 1343021                       # Number of cycles rename is idle
system.cpu0.rename.BlockCycles               25310078                       # Number of cycles rename is blocking
system.cpu0.rename.serializeStallCycles         26755                       # count of cycles rename stalled for serializing inst
system.cpu0.rename.RunCycles                  1768926                       # Number of cycles rename is running
system.cpu0.rename.UnblockCycles              1919038                       # Number of cycles rename is unblocking
system.cpu0.rename.RenamedInsts              12777753                       # Number of instructions processed by rename
system.cpu0.rename.ROBFullEvents                90948                       # Number of times rename has blocked due to ROB full
system.cpu0.rename.IQFullEvents               1553961                       # Number of times rename has blocked due to IQ full
system.cpu0.rename.LQFullEvents                292480                       # Number of times rename has blocked due to LQ full
system.cpu0.rename.SQFullEvents                  2273                       # Number of times rename has blocked due to SQ full
system.cpu0.rename.RenamedOperands           15219873                       # Number of destination operands rename has renamed
system.cpu0.rename.RenameLookups             35398886                       # Number of register rename lookups that rename has made
system.cpu0.rename.int_rename_lookups        16956387                       # Number of integer rename lookups
system.cpu0.rename.fp_rename_lookups            81174                       # Number of floating rename lookups
system.cpu0.rename.CommittedMaps              5665041                       # Number of HB maps that are committed
system.cpu0.rename.UndoneMaps                 9554836                       # Number of HB maps that are undone due to squashing
system.cpu0.rename.serializingInsts               479                       # count of serializing insts renamed
system.cpu0.rename.tempSerializingInsts           593                       # count of temporary serializing insts renamed
system.cpu0.rename.skidInsts                  3056678                       # count of insts added to the skid buffer
system.cpu0.memDep0.insertedLoads             2244390                       # Number of loads inserted to the mem dependence unit.
system.cpu0.memDep0.insertedStores             159845                       # Number of stores inserted to the mem dependence unit.
system.cpu0.memDep0.conflictingLoads            10098                       # Number of conflicting loads.
system.cpu0.memDep0.conflictingStores            8366                       # Number of conflicting stores.
system.cpu0.iq.iqInstsAdded                  12047366                       # Number of instructions added to the IQ (excludes non-spec)
system.cpu0.iq.iqNonSpecInstsAdded               8955                       # Number of non-speculative instructions added to the IQ
system.cpu0.iq.iqInstsIssued                  8774772                       # Number of instructions issued
system.cpu0.iq.iqSquashedInstsIssued            12178                       # Number of squashed instructions issued
system.cpu0.iq.iqSquashedInstsExamined        7333456                       # Number of squashed instructions iterated over during squash; mainly for profiling
system.cpu0.iq.iqSquashedOperandsExamined     15076311                       # Number of squashed operands that are examined and possibly removed from graph
system.cpu0.iq.iqSquashedNonSpecRemoved          8955                       # Number of squashed non-spec instructions that were removed
system.cpu0.iq.issued_per_cycle::samples     30489491                       # Number of insts issued each cycle
system.cpu0.iq.issued_per_cycle::mean        0.287797                       # Number of insts issued each cycle
system.cpu0.iq.issued_per_cycle::stdev       0.985391                       # Number of insts issued each cycle
system.cpu0.iq.issued_per_cycle::underflows            0      0.00%      0.00% # Number of insts issued each cycle
system.cpu0.iq.issued_per_cycle::0           27065616     88.77%     88.77% # Number of insts issued each cycle
system.cpu0.iq.issued_per_cycle::1            1265818      4.15%     92.92% # Number of insts issued each cycle
system.cpu0.iq.issued_per_cycle::2             717193      2.35%     95.27% # Number of insts issued each cycle
system.cpu0.iq.issued_per_cycle::3             501963      1.65%     96.92% # Number of insts issued each cycle
system.cpu0.iq.issued_per_cycle::4             511739      1.68%     98.60% # Number of insts issued each cycle
system.cpu0.iq.issued_per_cycle::5             182807      0.60%     99.20% # Number of insts issued each cycle
system.cpu0.iq.issued_per_cycle::6             144418      0.47%     99.67% # Number of insts issued each cycle
system.cpu0.iq.issued_per_cycle::7              58316      0.19%     99.86% # Number of insts issued each cycle
system.cpu0.iq.issued_per_cycle::8              41621      0.14%    100.00% # Number of insts issued each cycle
system.cpu0.iq.issued_per_cycle::overflows            0      0.00%    100.00% # Number of insts issued each cycle
system.cpu0.iq.issued_per_cycle::min_value            0                       # Number of insts issued each cycle
system.cpu0.iq.issued_per_cycle::max_value            8                       # Number of insts issued each cycle
system.cpu0.iq.issued_per_cycle::total       30489491                       # Number of insts issued each cycle
system.cpu0.iq.fu_full::No_OpClass                  0      0.00%      0.00% # attempts to use FU when none available
system.cpu0.iq.fu_full::IntAlu                  24910     73.41%     73.41% # attempts to use FU when none available
system.cpu0.iq.fu_full::IntMult                     0      0.00%     73.41% # attempts to use FU when none available
system.cpu0.iq.fu_full::IntDiv                      0      0.00%     73.41% # attempts to use FU when none available
system.cpu0.iq.fu_full::FloatAdd                 2524      7.44%     80.85% # attempts to use FU when none available
system.cpu0.iq.fu_full::FloatCmp                    0      0.00%     80.85% # attempts to use FU when none available
system.cpu0.iq.fu_full::FloatCvt                    0      0.00%     80.85% # attempts to use FU when none available
system.cpu0.iq.fu_full::FloatMult                   0      0.00%     80.85% # attempts to use FU when none available
system.cpu0.iq.fu_full::FloatMultAcc                0      0.00%     80.85% # attempts to use FU when none available
system.cpu0.iq.fu_full::FloatDiv                    0      0.00%     80.85% # attempts to use FU when none available
system.cpu0.iq.fu_full::FloatMisc                   0      0.00%     80.85% # attempts to use FU when none available
system.cpu0.iq.fu_full::FloatSqrt                   0      0.00%     80.85% # attempts to use FU when none available
system.cpu0.iq.fu_full::SimdAdd                     0      0.00%     80.85% # attempts to use FU when none available
system.cpu0.iq.fu_full::SimdAddAcc                  0      0.00%     80.85% # attempts to use FU when none available
system.cpu0.iq.fu_full::SimdAlu                     0      0.00%     80.85% # attempts to use FU when none available
system.cpu0.iq.fu_full::SimdCmp                     0      0.00%     80.85% # attempts to use FU when none available
system.cpu0.iq.fu_full::SimdCvt                     0      0.00%     80.85% # attempts to use FU when none available
system.cpu0.iq.fu_full::SimdMisc                    0      0.00%     80.85% # attempts to use FU when none available
system.cpu0.iq.fu_full::SimdMult                    0      0.00%     80.85% # attempts to use FU when none available
system.cpu0.iq.fu_full::SimdMultAcc                 0      0.00%     80.85% # attempts to use FU when none available
system.cpu0.iq.fu_full::SimdShift                   0      0.00%     80.85% # attempts to use FU when none available
system.cpu0.iq.fu_full::SimdShiftAcc                0      0.00%     80.85% # attempts to use FU when none available
system.cpu0.iq.fu_full::SimdSqrt                    0      0.00%     80.85% # attempts to use FU when none available
system.cpu0.iq.fu_full::SimdFloatAdd                0      0.00%     80.85% # attempts to use FU when none available
system.cpu0.iq.fu_full::SimdFloatAlu                0      0.00%     80.85% # attempts to use FU when none available
system.cpu0.iq.fu_full::SimdFloatCmp                0      0.00%     80.85% # attempts to use FU when none available
system.cpu0.iq.fu_full::SimdFloatCvt                0      0.00%     80.85% # attempts to use FU when none available
system.cpu0.iq.fu_full::SimdFloatDiv                0      0.00%     80.85% # attempts to use FU when none available
system.cpu0.iq.fu_full::SimdFloatMisc               0      0.00%     80.85% # attempts to use FU when none available
system.cpu0.iq.fu_full::SimdFloatMult               0      0.00%     80.85% # attempts to use FU when none available
system.cpu0.iq.fu_full::SimdFloatMultAcc            0      0.00%     80.85% # attempts to use FU when none available
system.cpu0.iq.fu_full::SimdFloatSqrt               0      0.00%     80.85% # attempts to use FU when none available
system.cpu0.iq.fu_full::MemRead                  5689     16.77%     97.62% # attempts to use FU when none available
system.cpu0.iq.fu_full::MemWrite                  613      1.81%     99.42% # attempts to use FU when none available
system.cpu0.iq.fu_full::FloatMemRead              174      0.51%     99.94% # attempts to use FU when none available
system.cpu0.iq.fu_full::FloatMemWrite              22      0.06%    100.00% # attempts to use FU when none available
system.cpu0.iq.fu_full::IprAccess                   0      0.00%    100.00% # attempts to use FU when none available
system.cpu0.iq.fu_full::InstPrefetch                0      0.00%    100.00% # attempts to use FU when none available
system.cpu0.iq.FU_type_0::No_OpClass            32360      0.37%      0.37% # Type of FU issued
system.cpu0.iq.FU_type_0::IntAlu              7186277     81.90%     82.27% # Type of FU issued
system.cpu0.iq.FU_type_0::IntMult                1976      0.02%     82.29% # Type of FU issued
system.cpu0.iq.FU_type_0::IntDiv                23540      0.27%     82.56% # Type of FU issued
system.cpu0.iq.FU_type_0::FloatAdd              32154      0.37%     82.92% # Type of FU issued
system.cpu0.iq.FU_type_0::FloatCmp                  0      0.00%     82.92% # Type of FU issued
system.cpu0.iq.FU_type_0::FloatCvt                  0      0.00%     82.92% # Type of FU issued
system.cpu0.iq.FU_type_0::FloatMult                 0      0.00%     82.92% # Type of FU issued
system.cpu0.iq.FU_type_0::FloatMultAcc              0      0.00%     82.92% # Type of FU issued
system.cpu0.iq.FU_type_0::FloatDiv                  0      0.00%     82.92% # Type of FU issued
system.cpu0.iq.FU_type_0::FloatMisc                 0      0.00%     82.92% # Type of FU issued
system.cpu0.iq.FU_type_0::FloatSqrt                 0      0.00%     82.92% # Type of FU issued
system.cpu0.iq.FU_type_0::SimdAdd                   0      0.00%     82.92% # Type of FU issued
system.cpu0.iq.FU_type_0::SimdAddAcc                0      0.00%     82.92% # Type of FU issued
system.cpu0.iq.FU_type_0::SimdAlu                   0      0.00%     82.92% # Type of FU issued
system.cpu0.iq.FU_type_0::SimdCmp                   0      0.00%     82.92% # Type of FU issued
system.cpu0.iq.FU_type_0::SimdCvt                   0      0.00%     82.92% # Type of FU issued
system.cpu0.iq.FU_type_0::SimdMisc                  0      0.00%     82.92% # Type of FU issued
system.cpu0.iq.FU_type_0::SimdMult                  0      0.00%     82.92% # Type of FU issued
system.cpu0.iq.FU_type_0::SimdMultAcc               0      0.00%     82.92% # Type of FU issued
system.cpu0.iq.FU_type_0::SimdShift                 0      0.00%     82.92% # Type of FU issued
system.cpu0.iq.FU_type_0::SimdShiftAcc              0      0.00%     82.92% # Type of FU issued
system.cpu0.iq.FU_type_0::SimdSqrt                  0      0.00%     82.92% # Type of FU issued
system.cpu0.iq.FU_type_0::SimdFloatAdd              0      0.00%     82.92% # Type of FU issued
system.cpu0.iq.FU_type_0::SimdFloatAlu              0      0.00%     82.92% # Type of FU issued
system.cpu0.iq.FU_type_0::SimdFloatCmp              0      0.00%     82.92% # Type of FU issued
system.cpu0.iq.FU_type_0::SimdFloatCvt              0      0.00%     82.92% # Type of FU issued
system.cpu0.iq.FU_type_0::SimdFloatDiv              0      0.00%     82.92% # Type of FU issued
system.cpu0.iq.FU_type_0::SimdFloatMisc             0      0.00%     82.92% # Type of FU issued
system.cpu0.iq.FU_type_0::SimdFloatMult             0      0.00%     82.92% # Type of FU issued
system.cpu0.iq.FU_type_0::SimdFloatMultAcc            0      0.00%     82.92% # Type of FU issued
system.cpu0.iq.FU_type_0::SimdFloatSqrt             0      0.00%     82.92% # Type of FU issued
system.cpu0.iq.FU_type_0::MemRead             1372357     15.64%     98.56% # Type of FU issued
system.cpu0.iq.FU_type_0::MemWrite             120550      1.37%     99.94% # Type of FU issued
system.cpu0.iq.FU_type_0::FloatMemRead           5514      0.06%    100.00% # Type of FU issued
system.cpu0.iq.FU_type_0::FloatMemWrite            44      0.00%    100.00% # Type of FU issued
system.cpu0.iq.FU_type_0::IprAccess                 0      0.00%    100.00% # Type of FU issued
system.cpu0.iq.FU_type_0::InstPrefetch              0      0.00%    100.00% # Type of FU issued
system.cpu0.iq.FU_type_0::total               8774772                       # Type of FU issued
system.cpu0.iq.rate                          0.287371                       # Inst issue rate
system.cpu0.iq.fu_busy_cnt                      33932                       # FU busy when requested
system.cpu0.iq.fu_busy_rate                  0.003867                       # FU busy rate (busy events/executed inst)
system.cpu0.iq.int_inst_queue_reads          48006612                       # Number of integer instruction queue reads
system.cpu0.iq.int_inst_queue_writes         19326036                       # Number of integer instruction queue writes
system.cpu0.iq.int_inst_queue_wakeup_accesses      8379967                       # Number of integer instruction queue wakeup accesses
system.cpu0.iq.fp_inst_queue_reads              78535                       # Number of floating instruction queue reads
system.cpu0.iq.fp_inst_queue_writes             63746                       # Number of floating instruction queue writes
system.cpu0.iq.fp_inst_queue_wakeup_accesses        35154                       # Number of floating instruction queue wakeup accesses
system.cpu0.iq.vec_inst_queue_reads                 0                       # Number of vector instruction queue reads
system.cpu0.iq.vec_inst_queue_writes                0                       # Number of vector instruction queue writes
system.cpu0.iq.vec_inst_queue_wakeup_accesses            0                       # Number of vector instruction queue wakeup accesses
system.cpu0.iq.int_alu_accesses               8735911                       # Number of integer alu accesses
system.cpu0.iq.fp_alu_accesses                  40433                       # Number of floating point alu accesses
system.cpu0.iq.vec_alu_accesses                     0                       # Number of vector alu accesses
system.cpu0.iew.lsq.thread0.forwLoads           11512                       # Number of loads that had data forwarded from stores
system.cpu0.iew.lsq.thread0.invAddrLoads            0                       # Number of loads ignored due to an invalid address
system.cpu0.iew.lsq.thread0.squashedLoads      1385941                       # Number of loads squashed
system.cpu0.iew.lsq.thread0.ignoredResponses          342                       # Number of memory responses ignored because the instruction is squashed
system.cpu0.iew.lsq.thread0.memOrderViolation            8                       # Number of memory ordering violations
system.cpu0.iew.lsq.thread0.squashedStores        89281                       # Number of stores squashed
system.cpu0.iew.lsq.thread0.invAddrSwpfs            0                       # Number of software prefetches ignored due to an invalid address
system.cpu0.iew.lsq.thread0.blockedLoads            0                       # Number of blocked loads due to partial load-store forwarding
system.cpu0.iew.lsq.thread0.rescheduledLoads           96                       # Number of loads that were rescheduled
system.cpu0.iew.lsq.thread0.cacheBlocked         1992                       # Number of times an access to memory failed due to the cache being blocked
system.cpu0.iew.iewIdleCycles                       0                       # Number of cycles IEW is idle
system.cpu0.iew.iewSquashCycles                121673                       # Number of cycles IEW is squashing
system.cpu0.iew.iewBlockCycles               22844146                       # Number of cycles IEW is blocking
system.cpu0.iew.iewUnblockCycles               356875                       # Number of cycles IEW is unblocking
system.cpu0.iew.iewDispatchedInsts           12056321                       # Number of instructions dispatched to IQ
system.cpu0.iew.iewDispSquashedInsts             7404                       # Number of squashed instructions skipped by dispatch
system.cpu0.iew.iewDispLoadInsts              2244390                       # Number of dispatched load instructions
system.cpu0.iew.iewDispStoreInsts              159845                       # Number of dispatched store instructions
system.cpu0.iew.iewDispNonSpecInsts              3293                       # Number of dispatched non-speculative instructions
system.cpu0.iew.iewIQFullEvents                 25554                       # Number of times the IQ has become full, causing a stall
system.cpu0.iew.iewLSQFullEvents                72385                       # Number of times the LSQ has become full, causing a stall
system.cpu0.iew.memOrderViolationEvents             8                       # Number of memory order violations
system.cpu0.iew.predictedTakenIncorrect         64139                       # Number of branches that were predicted taken incorrectly
system.cpu0.iew.predictedNotTakenIncorrect        71925                       # Number of branches that were predicted not taken incorrectly
system.cpu0.iew.branchMispredicts              136064                       # Number of branch mispredicts detected at execute
system.cpu0.iew.iewExecutedInsts              8592699                       # Number of executed instructions
system.cpu0.iew.iewExecLoadInsts              1308955                       # Number of load instructions executed
system.cpu0.iew.iewExecSquashedInsts           182075                       # Number of squashed instructions skipped in execute
system.cpu0.iew.exec_swp                            0                       # number of swp insts executed
system.cpu0.iew.exec_nop                            0                       # number of nop insts executed
system.cpu0.iew.exec_refs                     1421665                       # number of memory reference insts executed
system.cpu0.iew.exec_branches                 1031188                       # Number of branches executed
system.cpu0.iew.exec_stores                    112710                       # Number of stores executed
system.cpu0.iew.exec_rate                    0.281408                       # Inst execution rate
system.cpu0.iew.wb_sent                       8449157                       # cumulative count of insts sent to commit
system.cpu0.iew.wb_count                      8415121                       # cumulative count of insts written-back
system.cpu0.iew.wb_producers                  6239163                       # num instructions producing a value
system.cpu0.iew.wb_consumers                 10010378                       # num instructions consuming a value
system.cpu0.iew.wb_rate                      0.275592                       # insts written-back per cycle
system.cpu0.iew.wb_fanout                    0.623269                       # average fanout of values written-back
system.cpu0.commit.commitSquashedInsts        7334358                       # The number of squashed insts skipped by commit
system.cpu0.commit.branchMispredicts           121668                       # The number of times a branch was mispredicted
system.cpu0.commit.committed_per_cycle::samples     29443376                       # Number of insts commited each cycle
system.cpu0.commit.committed_per_cycle::mean     0.160405                       # Number of insts commited each cycle
system.cpu0.commit.committed_per_cycle::stdev     0.760378                       # Number of insts commited each cycle
system.cpu0.commit.committed_per_cycle::underflows            0      0.00%      0.00% # Number of insts commited each cycle
system.cpu0.commit.committed_per_cycle::0     27500400     93.40%     93.40% # Number of insts commited each cycle
system.cpu0.commit.committed_per_cycle::1       862690      2.93%     96.33% # Number of insts commited each cycle
system.cpu0.commit.committed_per_cycle::2       219787      0.75%     97.08% # Number of insts commited each cycle
system.cpu0.commit.committed_per_cycle::3       561317      1.91%     98.98% # Number of insts commited each cycle
system.cpu0.commit.committed_per_cycle::4       105590      0.36%     99.34% # Number of insts commited each cycle
system.cpu0.commit.committed_per_cycle::5        66524      0.23%     99.57% # Number of insts commited each cycle
system.cpu0.commit.committed_per_cycle::6        12749      0.04%     99.61% # Number of insts commited each cycle
system.cpu0.commit.committed_per_cycle::7         9375      0.03%     99.64% # Number of insts commited each cycle
system.cpu0.commit.committed_per_cycle::8       104944      0.36%    100.00% # Number of insts commited each cycle
system.cpu0.commit.committed_per_cycle::overflows            0      0.00%    100.00% # Number of insts commited each cycle
system.cpu0.commit.committed_per_cycle::min_value            0                       # Number of insts commited each cycle
system.cpu0.commit.committed_per_cycle::max_value            8                       # Number of insts commited each cycle
system.cpu0.commit.committed_per_cycle::total     29443376                       # Number of insts commited each cycle
system.cpu0.commit.committedInsts             2364946                       # Number of instructions committed
system.cpu0.commit.committedOps               4722866                       # Number of ops (including micro ops) committed
system.cpu0.commit.swp_count                        0                       # Number of s/w prefetches committed
system.cpu0.commit.refs                        929013                       # Number of memory references committed
system.cpu0.commit.loads                       858449                       # Number of loads committed
system.cpu0.commit.membars                          0                       # Number of memory barriers committed
system.cpu0.commit.branches                    819296                       # Number of branches committed
system.cpu0.commit.vec_insts                        0                       # Number of committed Vector instructions.
system.cpu0.commit.fp_insts                     28066                       # Number of committed floating point instructions.
system.cpu0.commit.int_insts                  4694465                       # Number of committed integer instructions.
system.cpu0.commit.function_calls               12425                       # Number of function calls committed.
system.cpu0.commit.op_class_0::No_OpClass         8443      0.18%      0.18% # Class of committed instruction
system.cpu0.commit.op_class_0::IntAlu         3740548     79.20%     79.38% # Class of committed instruction
system.cpu0.commit.op_class_0::IntMult            497      0.01%     79.39% # Class of committed instruction
system.cpu0.commit.op_class_0::IntDiv           20353      0.43%     79.82% # Class of committed instruction
system.cpu0.commit.op_class_0::FloatAdd         24012      0.51%     80.33% # Class of committed instruction
system.cpu0.commit.op_class_0::FloatCmp             0      0.00%     80.33% # Class of committed instruction
system.cpu0.commit.op_class_0::FloatCvt             0      0.00%     80.33% # Class of committed instruction
system.cpu0.commit.op_class_0::FloatMult            0      0.00%     80.33% # Class of committed instruction
system.cpu0.commit.op_class_0::FloatMultAcc            0      0.00%     80.33% # Class of committed instruction
system.cpu0.commit.op_class_0::FloatDiv             0      0.00%     80.33% # Class of committed instruction
system.cpu0.commit.op_class_0::FloatMisc            0      0.00%     80.33% # Class of committed instruction
system.cpu0.commit.op_class_0::FloatSqrt            0      0.00%     80.33% # Class of committed instruction
system.cpu0.commit.op_class_0::SimdAdd              0      0.00%     80.33% # Class of committed instruction
system.cpu0.commit.op_class_0::SimdAddAcc            0      0.00%     80.33% # Class of committed instruction
system.cpu0.commit.op_class_0::SimdAlu              0      0.00%     80.33% # Class of committed instruction
system.cpu0.commit.op_class_0::SimdCmp              0      0.00%     80.33% # Class of committed instruction
system.cpu0.commit.op_class_0::SimdCvt              0      0.00%     80.33% # Class of committed instruction
system.cpu0.commit.op_class_0::SimdMisc             0      0.00%     80.33% # Class of committed instruction
system.cpu0.commit.op_class_0::SimdMult             0      0.00%     80.33% # Class of committed instruction
system.cpu0.commit.op_class_0::SimdMultAcc            0      0.00%     80.33% # Class of committed instruction
system.cpu0.commit.op_class_0::SimdShift            0      0.00%     80.33% # Class of committed instruction
system.cpu0.commit.op_class_0::SimdShiftAcc            0      0.00%     80.33% # Class of committed instruction
system.cpu0.commit.op_class_0::SimdSqrt             0      0.00%     80.33% # Class of committed instruction
system.cpu0.commit.op_class_0::SimdFloatAdd            0      0.00%     80.33% # Class of committed instruction
system.cpu0.commit.op_class_0::SimdFloatAlu            0      0.00%     80.33% # Class of committed instruction
system.cpu0.commit.op_class_0::SimdFloatCmp            0      0.00%     80.33% # Class of committed instruction
system.cpu0.commit.op_class_0::SimdFloatCvt            0      0.00%     80.33% # Class of committed instruction
system.cpu0.commit.op_class_0::SimdFloatDiv            0      0.00%     80.33% # Class of committed instruction
system.cpu0.commit.op_class_0::SimdFloatMisc            0      0.00%     80.33% # Class of committed instruction
system.cpu0.commit.op_class_0::SimdFloatMult            0      0.00%     80.33% # Class of committed instruction
system.cpu0.commit.op_class_0::SimdFloatMultAcc            0      0.00%     80.33% # Class of committed instruction
system.cpu0.commit.op_class_0::SimdFloatSqrt            0      0.00%     80.33% # Class of committed instruction
system.cpu0.commit.op_class_0::MemRead         854395     18.09%     98.42% # Class of committed instruction
system.cpu0.commit.op_class_0::MemWrite         70564      1.49%     99.91% # Class of committed instruction
system.cpu0.commit.op_class_0::FloatMemRead         4054      0.09%    100.00% # Class of committed instruction
system.cpu0.commit.op_class_0::FloatMemWrite            0      0.00%    100.00% # Class of committed instruction
system.cpu0.commit.op_class_0::IprAccess            0      0.00%    100.00% # Class of committed instruction
system.cpu0.commit.op_class_0::InstPrefetch            0      0.00%    100.00% # Class of committed instruction
system.cpu0.commit.op_class_0::total          4722866                       # Class of committed instruction
system.cpu0.commit.bw_lim_events               104944                       # number cycles where commit BW limit reached
system.cpu0.rob.rob_reads                    41395656                       # The number of ROB reads
system.cpu0.rob.rob_writes                   25163916                       # The number of ROB writes
system.cpu0.timesIdled                            481                       # Number of times that the entire CPU went into an idle state and unscheduled itself
system.cpu0.idleCycles                          45197                       # Total number of cycles that the CPU has spent unscheduled due to idling
system.cpu0.committedInsts                    2364946                       # Number of Instructions Simulated
system.cpu0.committedOps                      4722866                       # Number of Ops (including micro ops) Simulated
system.cpu0.cpi                             12.911368                       # CPI: Cycles Per Instruction
system.cpu0.cpi_total                       12.911368                       # CPI: Total CPI of All Threads
system.cpu0.ipc                              0.077451                       # IPC: Instructions Per Cycle
system.cpu0.ipc_total                        0.077451                       # IPC: Total IPC of All Threads
system.cpu0.int_regfile_reads                 8916941                       # number of integer regfile reads
system.cpu0.int_regfile_writes                7290864                       # number of integer regfile writes
system.cpu0.fp_regfile_reads                    62090                       # number of floating regfile reads
system.cpu0.fp_regfile_writes                   31021                       # number of floating regfile writes
system.cpu0.cc_regfile_reads                  5456936                       # number of cc regfile reads
system.cpu0.cc_regfile_writes                 2374072                       # number of cc regfile writes
system.cpu0.misc_regfile_reads                4454402                       # number of misc regfile reads
system.cpu0.dcache.tags.pwrStateResidencyTicks::UNDEFINED  15267344125                       # Cumulative time (in ticks) in various power states
system.cpu0.dcache.tags.replacements           424728                       # number of replacements
system.cpu0.dcache.tags.tagsinuse                1024                       # Cycle average of tags in use
system.cpu0.dcache.tags.total_refs             631517                       # Total number of references to valid blocks.
system.cpu0.dcache.tags.sampled_refs           424728                       # Sample count of references to valid blocks.
system.cpu0.dcache.tags.avg_refs             1.486874                       # Average number of references to valid blocks.
system.cpu0.dcache.tags.warmup_cycle                0                       # Cycle when the warmup percentage was hit.
system.cpu0.dcache.tags.occ_blocks::cpu0.data         1024                       # Average occupied blocks per requestor
system.cpu0.dcache.tags.occ_percent::cpu0.data            1                       # Average percentage of cache occupancy
system.cpu0.dcache.tags.occ_percent::total            1                       # Average percentage of cache occupancy
system.cpu0.dcache.tags.occ_task_id_blocks::1024         1024                       # Occupied blocks per task id
system.cpu0.dcache.tags.age_task_id_blocks_1024::0          317                       # Occupied blocks per task id
system.cpu0.dcache.tags.age_task_id_blocks_1024::1          706                       # Occupied blocks per task id
system.cpu0.dcache.tags.age_task_id_blocks_1024::2            1                       # Occupied blocks per task id
system.cpu0.dcache.tags.occ_task_id_percent::1024            1                       # Percentage of cache occupancy per task id
system.cpu0.dcache.tags.tag_accesses          5864212                       # Number of tag accesses
system.cpu0.dcache.tags.data_accesses         5864212                       # Number of data accesses
system.cpu0.dcache.pwrStateResidencyTicks::UNDEFINED  15267344125                       # Cumulative time (in ticks) in various power states
system.cpu0.dcache.ReadReq_hits::cpu0.data       557169                       # number of ReadReq hits
system.cpu0.dcache.ReadReq_hits::total         557169                       # number of ReadReq hits
system.cpu0.dcache.WriteReq_hits::cpu0.data        68713                       # number of WriteReq hits
system.cpu0.dcache.WriteReq_hits::total         68713                       # number of WriteReq hits
system.cpu0.dcache.demand_hits::cpu0.data       625882                       # number of demand (read+write) hits
system.cpu0.dcache.demand_hits::total          625882                       # number of demand (read+write) hits
system.cpu0.dcache.overall_hits::cpu0.data       625882                       # number of overall hits
system.cpu0.dcache.overall_hits::total         625882                       # number of overall hits
system.cpu0.dcache.ReadReq_misses::cpu0.data       732138                       # number of ReadReq misses
system.cpu0.dcache.ReadReq_misses::total       732138                       # number of ReadReq misses
system.cpu0.dcache.WriteReq_misses::cpu0.data         1851                       # number of WriteReq misses
system.cpu0.dcache.WriteReq_misses::total         1851                       # number of WriteReq misses
system.cpu0.dcache.demand_misses::cpu0.data       733989                       # number of demand (read+write) misses
system.cpu0.dcache.demand_misses::total        733989                       # number of demand (read+write) misses
system.cpu0.dcache.overall_misses::cpu0.data       733989                       # number of overall misses
system.cpu0.dcache.overall_misses::total       733989                       # number of overall misses
system.cpu0.dcache.ReadReq_miss_latency::cpu0.data  33461150000                       # number of ReadReq miss cycles
system.cpu0.dcache.ReadReq_miss_latency::total  33461150000                       # number of ReadReq miss cycles
system.cpu0.dcache.WriteReq_miss_latency::cpu0.data     84560500                       # number of WriteReq miss cycles
system.cpu0.dcache.WriteReq_miss_latency::total     84560500                       # number of WriteReq miss cycles
system.cpu0.dcache.demand_miss_latency::cpu0.data  33545710500                       # number of demand (read+write) miss cycles
system.cpu0.dcache.demand_miss_latency::total  33545710500                       # number of demand (read+write) miss cycles
system.cpu0.dcache.overall_miss_latency::cpu0.data  33545710500                       # number of overall miss cycles
system.cpu0.dcache.overall_miss_latency::total  33545710500                       # number of overall miss cycles
system.cpu0.dcache.ReadReq_accesses::cpu0.data      1289307                       # number of ReadReq accesses(hits+misses)
system.cpu0.dcache.ReadReq_accesses::total      1289307                       # number of ReadReq accesses(hits+misses)
system.cpu0.dcache.WriteReq_accesses::cpu0.data        70564                       # number of WriteReq accesses(hits+misses)
system.cpu0.dcache.WriteReq_accesses::total        70564                       # number of WriteReq accesses(hits+misses)
system.cpu0.dcache.demand_accesses::cpu0.data      1359871                       # number of demand (read+write) accesses
system.cpu0.dcache.demand_accesses::total      1359871                       # number of demand (read+write) accesses
system.cpu0.dcache.overall_accesses::cpu0.data      1359871                       # number of overall (read+write) accesses
system.cpu0.dcache.overall_accesses::total      1359871                       # number of overall (read+write) accesses
system.cpu0.dcache.ReadReq_miss_rate::cpu0.data     0.567854                       # miss rate for ReadReq accesses
system.cpu0.dcache.ReadReq_miss_rate::total     0.567854                       # miss rate for ReadReq accesses
system.cpu0.dcache.WriteReq_miss_rate::cpu0.data     0.026232                       # miss rate for WriteReq accesses
system.cpu0.dcache.WriteReq_miss_rate::total     0.026232                       # miss rate for WriteReq accesses
system.cpu0.dcache.demand_miss_rate::cpu0.data     0.539749                       # miss rate for demand accesses
system.cpu0.dcache.demand_miss_rate::total     0.539749                       # miss rate for demand accesses
system.cpu0.dcache.overall_miss_rate::cpu0.data     0.539749                       # miss rate for overall accesses
system.cpu0.dcache.overall_miss_rate::total     0.539749                       # miss rate for overall accesses
system.cpu0.dcache.ReadReq_avg_miss_latency::cpu0.data 45703.337349                       # average ReadReq miss latency
system.cpu0.dcache.ReadReq_avg_miss_latency::total 45703.337349                       # average ReadReq miss latency
[...]
system.l2.ReadSharedReq_hits::cpu0.data        267222                       # number of ReadSharedReq hits
system.l2.ReadSharedReq_hits::total            267222                       # number of ReadSharedReq hits
system.l2.demand_hits::cpu0.data               268379                       # number of demand (read+write) hits
system.l2.demand_hits::total                   268379                       # number of demand (read+write) hits
system.l2.overall_hits::cpu0.data              268379                       # number of overall hits
system.l2.overall_hits::total                  268379                       # number of overall hits
system.l2.ReadExReq_misses::cpu0.data             685                       # number of ReadExReq misses
system.l2.ReadExReq_misses::total                 685                       # number of ReadExReq misses
system.l2.ReadSharedReq_misses::cpu0.data       155665                       # number of ReadSharedReq misses
system.l2.ReadSharedReq_misses::total          155665                       # number of ReadSharedReq misses
system.l2.demand_misses::cpu0.data             156350                       # number of demand (read+write) misses
system.l2.demand_misses::total                 156350                       # number of demand (read+write) misses
system.l2.overall_misses::cpu0.data            156350                       # number of overall misses
system.l2.overall_misses::total                156350                       # number of overall misses
system.l2.ReadExReq_miss_latency::cpu0.data     66561500                       # number of ReadExReq miss cycles
system.l2.ReadExReq_miss_latency::total      66561500                       # number of ReadExReq miss cycles
system.l2.ReadSharedReq_miss_latency::cpu0.data  14976246500                       # number of ReadSharedReq miss cycles
system.l2.ReadSharedReq_miss_latency::total  14976246500                       # number of ReadSharedReq miss cycles
system.l2.demand_miss_latency::cpu0.data  15042808000                       # number of demand (read+write) miss cycles
system.l2.demand_miss_latency::total      15042808000                       # number of demand (read+write) miss cycles
system.l2.overall_miss_latency::cpu0.data  15042808000                       # number of overall miss cycles
system.l2.overall_miss_latency::total     15042808000                       # number of overall miss cycles
system.l2.WritebackDirty_accesses::writebacks         5411                       # number of WritebackDirty accesses(hits+misses)
system.l2.WritebackDirty_accesses::total         5411                       # number of WritebackDirty accesses(hits+misses)
system.l2.ReadExReq_accesses::cpu0.data          1842                       # number of ReadExReq accesses(hits+misses)
system.l2.ReadExReq_accesses::total              1842                       # number of ReadExReq accesses(hits+misses)
system.l2.ReadSharedReq_accesses::cpu0.data       422887                       # number of ReadSharedReq accesses(hits+misses)
system.l2.ReadSharedReq_accesses::total        422887                       # number of ReadSharedReq accesses(hits+misses)
system.l2.demand_accesses::cpu0.data           424729                       # number of demand (read+write) accesses
system.l2.demand_accesses::total               424729                       # number of demand (read+write) accesses
system.l2.overall_accesses::cpu0.data          424729                       # number of overall (read+write) accesses
system.l2.overall_accesses::total              424729                       # number of overall (read+write) accesses
system.l2.ReadExReq_miss_rate::cpu0.data     0.371878                       # miss rate for ReadExReq accesses
system.l2.ReadExReq_miss_rate::total         0.371878                       # miss rate for ReadExReq accesses
system.l2.ReadSharedReq_miss_rate::cpu0.data     0.368101                       # miss rate for ReadSharedReq accesses
system.l2.ReadSharedReq_miss_rate::total     0.368101                       # miss rate for ReadSharedReq accesses
system.l2.demand_miss_rate::cpu0.data        0.368117                       # miss rate for demand accesses
system.l2.demand_miss_rate::total            0.368117                       # miss rate for demand accesses
system.l2.overall_miss_rate::cpu0.data       0.368117                       # miss rate for overall accesses
system.l2.overall_miss_rate::total           0.368117                       # miss rate for overall accesses
system.l2.ReadExReq_avg_miss_latency::cpu0.data 97170.072993                       # average ReadExReq miss latency
system.l2.ReadExReq_avg_miss_latency::total 97170.072993                       # average ReadExReq miss latency
system.l2.ReadSharedReq_avg_miss_latency::cpu0.data 96208.181030                       # average ReadSharedReq miss latency
system.l2.ReadSharedReq_avg_miss_latency::total 96208.181030                       # average ReadSharedReq miss latency
system.l2.demand_avg_miss_latency::cpu0.data 96212.395267                       # average overall miss latency
system.l2.demand_avg_miss_latency::total 96212.395267                       # average overall miss latency
system.l2.overall_avg_miss_latency::cpu0.data 96212.395267                       # average overall miss latency
system.l2.overall_avg_miss_latency::total 96212.395267                       # average overall miss latency
system.l2.blocked_cycles::no_mshrs                  0                       # number of cycles access was blocked
system.l2.blocked_cycles::no_targets                0                       # number of cycles access was blocked
system.l2.blocked::no_mshrs                         0                       # number of cycles access was blocked
system.l2.blocked::no_targets                       0                       # number of cycles access was blocked
system.l2.avg_blocked_cycles::no_mshrs            nan                       # average number of cycles each access was blocked
system.l2.avg_blocked_cycles::no_targets          nan                       # average number of cycles each access was blocked
system.l2.writebacks::writebacks                  778                       # number of writebacks
system.l2.writebacks::total                       778                       # number of writebacks
system.l2.ReadExReq_mshr_misses::cpu0.data          685                       # number of ReadExReq MSHR misses
system.l2.ReadExReq_mshr_misses::total            685                       # number of ReadExReq MSHR misses
system.l2.ReadSharedReq_mshr_misses::cpu0.data       155665                       # number of ReadSharedReq MSHR misses
system.l2.ReadSharedReq_mshr_misses::total       155665                       # number of ReadSharedReq MSHR misses
system.l2.demand_mshr_misses::cpu0.data        156350                       # number of demand (read+write) MSHR misses
system.l2.demand_mshr_misses::total            156350                       # number of demand (read+write) MSHR misses
system.l2.overall_mshr_misses::cpu0.data       156350                       # number of overall MSHR misses
system.l2.overall_mshr_misses::total           156350                       # number of overall MSHR misses
system.l2.ReadExReq_mshr_miss_latency::cpu0.data     59711500                       # number of ReadExReq MSHR miss cycles
system.l2.ReadExReq_mshr_miss_latency::total     59711500                       # number of ReadExReq MSHR miss cycles
system.l2.ReadSharedReq_mshr_miss_latency::cpu0.data  13419596500                       # number of ReadSharedReq MSHR miss cycles
system.l2.ReadSharedReq_mshr_miss_latency::total  13419596500                       # number of ReadSharedReq MSHR miss cycles
system.l2.demand_mshr_miss_latency::cpu0.data  13479308000                       # number of demand (read+write) MSHR miss cycles
system.l2.demand_mshr_miss_latency::total  13479308000                       # number of demand (read+write) MSHR miss cycles
system.l2.overall_mshr_miss_latency::cpu0.data  13479308000                       # number of overall MSHR miss cycles
system.l2.overall_mshr_miss_latency::total  13479308000                       # number of overall MSHR miss cycles
system.l2.ReadExReq_mshr_miss_rate::cpu0.data     0.371878                       # mshr miss rate for ReadExReq accesses
system.l2.ReadExReq_mshr_miss_rate::total     0.371878                       # mshr miss rate for ReadExReq accesses
system.l2.ReadSharedReq_mshr_miss_rate::cpu0.data     0.368101                       # mshr miss rate for ReadSharedReq accesses
system.l2.ReadSharedReq_mshr_miss_rate::total     0.368101                       # mshr miss rate for ReadSharedReq accesses
system.l2.demand_mshr_miss_rate::cpu0.data     0.368117                       # mshr miss rate for demand accesses
system.l2.demand_mshr_miss_rate::total       0.368117                       # mshr miss rate for demand accesses
system.l2.overall_mshr_miss_rate::cpu0.data     0.368117                       # mshr miss rate for overall accesses
system.l2.overall_mshr_miss_rate::total      0.368117                       # mshr miss rate for overall accesses
system.l2.ReadExReq_avg_mshr_miss_latency::cpu0.data 87170.072993                       # average ReadExReq mshr miss latency
system.l2.ReadExReq_avg_mshr_miss_latency::total 87170.072993                       # average ReadExReq mshr miss latency
system.l2.ReadSharedReq_avg_mshr_miss_latency::cpu0.data 86208.181030                       # average ReadSharedReq mshr miss latency
system.l2.ReadSharedReq_avg_mshr_miss_latency::total 86208.181030                       # average ReadSharedReq mshr miss latency
system.l2.demand_avg_mshr_miss_latency::cpu0.data 86212.395267                       # average overall mshr miss latency
system.l2.demand_avg_mshr_miss_latency::total 86212.395267                       # average overall mshr miss latency
system.l2.overall_avg_mshr_miss_latency::cpu0.data 86212.395267                       # average overall mshr miss latency
system.l2.overall_avg_mshr_miss_latency::total 86212.395267                       # average overall mshr miss latency
system.membus.snoop_filter.tot_requests        312698                       # Total number of requests made to the snoop filter.
system.membus.snoop_filter.hit_single_requests       156348                       # Number of requests hitting in the snoop filter with a single holder of the requested data.
system.membus.snoop_filter.hit_multi_requests            0                       # Number of requests hitting in the snoop filter with multiple (>1) holders of the requested data.
system.membus.snoop_filter.tot_snoops               0                       # Total number of snoops made to the snoop filter.
system.membus.snoop_filter.hit_single_snoops            0                       # Number of snoops hitting in the snoop filter with a single holder of the requested data.
system.membus.snoop_filter.hit_multi_snoops            0                       # Number of snoops hitting in the snoop filter with multiple (>1) holders of the requested data.
system.membus.pwrStateResidencyTicks::UNDEFINED  15267344125                       # Cumulative time (in ticks) in various power states
system.membus.trans_dist::ReadResp             155665                       # Transaction distribution
system.membus.trans_dist::WritebackDirty          778                       # Transaction distribution
system.membus.trans_dist::CleanEvict           155570                       # Transaction distribution
system.membus.trans_dist::ReadExReq               685                       # Transaction distribution
system.membus.trans_dist::ReadExResp              685                       # Transaction distribution
system.membus.trans_dist::ReadSharedReq        155665                       # Transaction distribution
system.membus.pkt_count_system.l2.mem_side::system.mem_ctrls.port       469048                       # Packet count per connected master and slave (bytes)
system.membus.pkt_count_system.l2.mem_side::total       469048                       # Packet count per connected master and slave (bytes)
system.membus.pkt_count::total                 469048                       # Packet count per connected master and slave (bytes)
system.membus.pkt_size_system.l2.mem_side::system.mem_ctrls.port     10056192                       # Cumulative packet size per connected master and slave (bytes)
system.membus.pkt_size_system.l2.mem_side::total     10056192                       # Cumulative packet size per connected master and slave (bytes)
system.membus.pkt_size::total                10056192                       # Cumulative packet size per connected master and slave (bytes)
system.membus.snoops                                0                       # Total snoops (count)
system.membus.snoopTraffic                          0                       # Total snoop traffic (bytes)
system.membus.snoop_fanout::samples            156350                       # Request fanout histogram
system.membus.snoop_fanout::mean                    0                       # Request fanout histogram
system.membus.snoop_fanout::stdev                   0                       # Request fanout histogram
system.membus.snoop_fanout::underflows              0      0.00%      0.00% # Request fanout histogram
system.membus.snoop_fanout::0                  156350    100.00%    100.00% # Request fanout histogram
system.membus.snoop_fanout::1                       0      0.00%    100.00% # Request fanout histogram
system.membus.snoop_fanout::overflows               0      0.00%    100.00% # Request fanout histogram
system.membus.snoop_fanout::min_value               0                       # Request fanout histogram
system.membus.snoop_fanout::max_value               0                       # Request fanout histogram
system.membus.snoop_fanout::total              156350                       # Request fanout histogram
system.membus.reqLayer8.occupancy           366680500                       # Layer occupancy (ticks)
system.membus.reqLayer8.utilization               2.4                       # Layer utilization (%)
system.membus.respLayer1.occupancy          851784500                       # Layer occupancy (ticks)
system.membus.respLayer1.utilization              5.6                       # Layer utilization (%)
system.tol2bus.snoop_filter.tot_requests       849457                       # Total number of requests made to the snoop filter.
system.tol2bus.snoop_filter.hit_single_requests       424727                       # Number of requests hitting in the snoop filter with a single holder of the requested data.
system.tol2bus.snoop_filter.hit_multi_requests          982                       # Number of requests hitting in the snoop filter with multiple (>1) holders of the requested data.
system.tol2bus.snoop_filter.tot_snoops              1                       # Total number of snoops made to the snoop filter.
system.tol2bus.snoop_filter.hit_single_snoops            1                       # Number of snoops hitting in the snoop filter with a single holder of the requested data.
system.tol2bus.snoop_filter.hit_multi_snoops            0                       # Number of snoops hitting in the snoop filter with multiple (>1) holders of the requested data.
system.tol2bus.pwrStateResidencyTicks::UNDEFINED  15267344125                       # Cumulative time (in ticks) in various power states
system.tol2bus.trans_dist::ReadResp            422886                       # Transaction distribution
system.tol2bus.trans_dist::WritebackDirty         6189                       # Transaction distribution
system.tol2bus.trans_dist::CleanEvict          574889                       # Transaction distribution
system.tol2bus.trans_dist::ReadExReq             1842                       # Transaction distribution
system.tol2bus.trans_dist::ReadExResp            1842                       # Transaction distribution
system.tol2bus.trans_dist::ReadSharedReq       422887                       # Transaction distribution
system.tol2bus.pkt_count_system.cpu0.dcache.mem_side::system.l2.cpu_side      1274185                       # Packet count per connected master and slave (bytes)
system.tol2bus.pkt_count::total               1274185                       # Packet count per connected master and slave (bytes)
system.tol2bus.pkt_size_system.cpu0.dcache.mem_side::system.l2.cpu_side     27528896                       # Cumulative packet size per connected master and slave (bytes)
system.tol2bus.pkt_size::total               27528896                       # Cumulative packet size per connected master and slave (bytes)
system.tol2bus.snoops                          156350                       # Total snoops (count)
system.tol2bus.snoopTraffic                     49792                       # Total snoop traffic (bytes)
system.tol2bus.snoop_fanout::samples           581079                       # Request fanout histogram
system.tol2bus.snoop_fanout::mean            0.001690                       # Request fanout histogram
system.tol2bus.snoop_fanout::stdev           0.041074                       # Request fanout histogram
system.tol2bus.snoop_fanout::underflows             0      0.00%      0.00% # Request fanout histogram
system.tol2bus.snoop_fanout::0                 580097     99.83%     99.83% # Request fanout histogram
system.tol2bus.snoop_fanout::1                    982      0.17%    100.00% # Request fanout histogram
system.tol2bus.snoop_fanout::2                      0      0.00%    100.00% # Request fanout histogram
system.tol2bus.snoop_fanout::3                      0      0.00%    100.00% # Request fanout histogram
system.tol2bus.snoop_fanout::4                      0      0.00%    100.00% # Request fanout histogram
system.tol2bus.snoop_fanout::5                      0      0.00%    100.00% # Request fanout histogram
system.tol2bus.snoop_fanout::6                      0      0.00%    100.00% # Request fanout histogram
system.tol2bus.snoop_fanout::7                      0      0.00%    100.00% # Request fanout histogram
system.tol2bus.snoop_fanout::8                      0      0.00%    100.00% # Request fanout histogram
system.tol2bus.snoop_fanout::9                      0      0.00%    100.00% # Request fanout histogram
system.tol2bus.snoop_fanout::10                     0      0.00%    100.00% # Request fanout histogram
system.tol2bus.snoop_fanout::11                     0      0.00%    100.00% # Request fanout histogram
system.tol2bus.snoop_fanout::12                     0      0.00%    100.00% # Request fanout histogram
system.tol2bus.snoop_fanout::13                     0      0.00%    100.00% # Request fanout histogram
system.tol2bus.snoop_fanout::14                     0      0.00%    100.00% # Request fanout histogram
system.tol2bus.snoop_fanout::15                     0      0.00%    100.00% # Request fanout histogram
system.tol2bus.snoop_fanout::16                     0      0.00%    100.00% # Request fanout histogram
system.tol2bus.snoop_fanout::overflows              0      0.00%    100.00% # Request fanout histogram
system.tol2bus.snoop_fanout::min_value              0                       # Request fanout histogram
system.tol2bus.snoop_fanout::max_value              1                       # Request fanout histogram
system.tol2bus.snoop_fanout::total             581079                       # Request fanout histogram
system.tol2bus.reqLayer0.occupancy          430139500                       # Layer occupancy (ticks)
system.tol2bus.reqLayer0.utilization              2.8                       # Layer utilization (%)
system.tol2bus.respLayer1.occupancy         637092000                       # Layer occupancy (ticks)
system.tol2bus.respLayer1.utilization             4.2                       # Layer utilization (%)

---------- End Simulation Statistics   ----------
