
---------- Begin Simulation Statistics ----------
sim_seconds                                  0.015267                       # Number of seconds simulated
sim_ticks                                 15267344125                       # Number of ticks simulated
final_tick                               7801612847875                       # Number of ticks from beginning of simulation (restored from checkpoints and never reset)
sim_freq                                 1000000000000                       # Frequency of simulated ticks
host_inst_rate                              136146124                       # Simulator instruction rate (inst/s)
host_op_rate                                253903607                       # Simulator op (including micro ops) rate (op/s)
host_tick_rate                              341816483                       # Simulator tick rate (ticks/s)
host_mem_usage                                2332528                       # Number of bytes of host memory used
host_seconds                                    44.67                       # Real time elapsed on the host
sim_insts                                  6081008415                       # Number of instructions simulated
sim_ops                                   11340684935                       # Number of ops (including micro ops) simulated
system.voltage_domain.voltage                       1                       # Voltage in Volts
system.clk_domain.clock                          1000                       # Clock period in ticks
system.mem_ctrls.pwrStateResidencyTicks::UNDEFINED  15267344125                       # Cumulative time (in ticks) in various power states
system.mem_ctrls.bytes_read::cpu0.data       12023040                       # Number of bytes read from this memory
system.mem_ctrls.bytes_read::total           12023040                       # Number of bytes read from this memory
system.mem_ctrls.bytes_written::writebacks        19776                       # Number of bytes written to this memory
system.mem_ctrls.bytes_written::total           19776                       # Number of bytes written to this memory
system.mem_ctrls.num_reads::cpu0.data          187860                       # Number of read requests responded to by this memory
system.mem_ctrls.num_reads::total              187860                       # Number of read requests responded to by this memory
system.mem_ctrls.num_writes::writebacks           309                       # Number of write requests responded to by this memory
system.mem_ctrls.num_writes::total                309                       # Number of write requests responded to by this memory
system.mem_ctrls.bw_read::cpu0.data         787500426                       # Total read bandwidth from this memory (bytes/s)
system.mem_ctrls.bw_read::total             787500426                       # Total read bandwidth from this memory (bytes/s)
system.mem_ctrls.bw_write::writebacks         1295314                       # Write bandwidth from this memory (bytes/s)
system.mem_ctrls.bw_write::total              1295314                       # Write bandwidth from this memory (bytes/s)
system.mem_ctrls.bw_total::writebacks         1295314                       # Total bandwidth to/from this memory (bytes/s)
system.mem_ctrls.bw_total::cpu0.data        787500426                       # Total bandwidth to/from this memory (bytes/s)
system.mem_ctrls.bw_total::total            788795740                       # Total bandwidth to/from this memory (bytes/s)
system.mem_ctrls.readReqs                      187858                       # Number of read requests accepted
system.mem_ctrls.writeReqs                        309                       # Number of write requests accepted
system.mem_ctrls.readBursts                    187858                       # Number of DRAM read bursts, including those serviced by the write queue
system.mem_ctrls.writeBursts                      309                       # Number of DRAM write bursts, including those merged in the write queue
system.mem_ctrls.bytesReadDRAM               12020544                       # Total number of bytes read from DRAM
system.mem_ctrls.bytesReadWrQ                    2368                       # Total number of bytes read from write queue
system.mem_ctrls.bytesWritten                   19584                       # Total number of bytes written to DRAM
system.mem_ctrls.bytesReadSys                12022912                       # Total read bytes from the system interface side
system.mem_ctrls.bytesWrittenSys                19776                       # Total written bytes from the system interface side
system.mem_ctrls.servicedByWrQ                     37                       # Number of DRAM read bursts serviced by the write queue
system.mem_ctrls.mergedWrBursts                     0                       # Number of DRAM write bursts merged with an existing one
system.mem_ctrls.neitherReadNorWriteReqs            0                       # Number of requests that are neither read nor write
system.mem_ctrls.perBankRdBursts::0             11720                       # Per bank write bursts
system.mem_ctrls.perBankRdBursts::1             11845                       # Per bank write bursts
system.mem_ctrls.perBankRdBursts::2             11647                       # Per bank write bursts
system.mem_ctrls.perBankRdBursts::3             11903                       # Per bank write bursts
system.mem_ctrls.perBankRdBursts::4             11941                       # Per bank write bursts
system.mem_ctrls.perBankRdBursts::5             11742                       # Per bank write bursts
system.mem_ctrls.perBankRdBursts::6             11885                       # Per bank write bursts
system.mem_ctrls.perBankRdBursts::7             11759                       # Per bank write bursts
system.mem_ctrls.perBankRdBursts::8             11931                       # Per bank write bursts
system.mem_ctrls.perBankRdBursts::9             11563                       # Per bank write bursts
system.mem_ctrls.perBankRdBursts::10            11577                       # Per bank write bursts
system.mem_ctrls.perBankRdBursts::11            11608                       # Per bank write bursts
system.mem_ctrls.perBankRdBursts::12            11710                       # Per bank write bursts
system.mem_ctrls.perBankRdBursts::13            11692                       # Per bank write bursts
system.mem_ctrls.perBankRdBursts::14            11622                       # Per bank write bursts
system.mem_ctrls.perBankRdBursts::15            11676                       # Per bank write bursts
system.mem_ctrls.perBankWrBursts::0                 1                       # Per bank write bursts
system.mem_ctrls.perBankWrBursts::1                13                       # Per bank write bursts
system.mem_ctrls.perBankWrBursts::2               128                       # Per bank write bursts
system.mem_ctrls.perBankWrBursts::3               127                       # Per bank write bursts
system.mem_ctrls.perBankWrBursts::4                11                       # Per bank write bursts
system.mem_ctrls.perBankWrBursts::5                 0                       # Per bank write bursts
system.mem_ctrls.perBankWrBursts::6                 0                       # Per bank write bursts
system.mem_ctrls.perBankWrBursts::7                 0                       # Per bank write bursts
system.mem_ctrls.perBankWrBursts::8                 0                       # Per bank write bursts
system.mem_ctrls.perBankWrBursts::9                 0                       # Per bank write bursts
system.mem_ctrls.perBankWrBursts::10                0                       # Per bank write bursts
system.mem_ctrls.perBankWrBursts::11                7                       # Per bank write bursts
system.mem_ctrls.perBankWrBursts::12               11                       # Per bank write bursts
system.mem_ctrls.perBankWrBursts::13                0                       # Per bank write bursts
system.mem_ctrls.perBankWrBursts::14                8                       # Per bank write bursts
system.mem_ctrls.perBankWrBursts::15                0                       # Per bank write bursts
system.mem_ctrls.numRdRetry                         0                       # Number of times read queue was full causing retry
system.mem_ctrls.numWrRetry                         0                       # Number of times write queue was full causing retry
system.mem_ctrls.totGap                   15266989500                       # Total gap between requests
system.mem_ctrls.readPktSize::0                     0                       # Read request sizes (log2)
system.mem_ctrls.readPktSize::1                     0                       # Read request sizes (log2)
system.mem_ctrls.readPktSize::2                     0                       # Read request sizes (log2)
system.mem_ctrls.readPktSize::3                     0                       # Read request sizes (log2)
system.mem_ctrls.readPktSize::4                     0                       # Read request sizes (log2)
system.mem_ctrls.readPktSize::5                     0                       # Read request sizes (log2)
system.mem_ctrls.readPktSize::6                187858                       # Read request sizes (log2)
system.mem_ctrls.writePktSize::0                    0                       # Write request sizes (log2)
system.mem_ctrls.writePktSize::1                    0                       # Write request sizes (log2)
system.mem_ctrls.writePktSize::2                    0                       # Write request sizes (log2)
system.mem_ctrls.writePktSize::3                    0                       # Write request sizes (log2)
system.mem_ctrls.writePktSize::4                    0                       # Write request sizes (log2)
system.mem_ctrls.writePktSize::5                    0                       # Write request sizes (log2)
system.mem_ctrls.writePktSize::6                  309                       # Write request sizes (log2)
system.mem_ctrls.rdQLenPdf::0                  143950                       # What read queue length does an incoming req see
system.mem_ctrls.rdQLenPdf::1                   41343                       # What read queue length does an incoming req see
system.mem_ctrls.rdQLenPdf::2                    2474                       # What read queue length does an incoming req see
system.mem_ctrls.rdQLenPdf::3                      54                       # What read queue length does an incoming req see
system.mem_ctrls.rdQLenPdf::4                       0                       # What read queue length does an incoming req see
system.mem_ctrls.rdQLenPdf::5                       0                       # What read queue length does an incoming req see
system.mem_ctrls.rdQLenPdf::6                       0                       # What read queue length does an incoming req see
system.mem_ctrls.rdQLenPdf::7                       0                       # What read queue length does an incoming req see
system.mem_ctrls.rdQLenPdf::8                       0                       # What read queue length does an incoming req see
system.mem_ctrls.rdQLenPdf::9                       0                       # What read queue length does an incoming req see
system.mem_ctrls.rdQLenPdf::10                      0                       # What read queue length does an incoming req see
system.mem_ctrls.rdQLenPdf::11                      0                       # What read queue length does an incoming req see
system.mem_ctrls.rdQLenPdf::12                      0                       # What read queue length does an incoming req see
system.mem_ctrls.rdQLenPdf::13                      0                       # What read queue length does an incoming req see
system.mem_ctrls.rdQLenPdf::14                      0                       # What read queue length does an incoming req see
system.mem_ctrls.rdQLenPdf::15                      0                       # What read queue length does an incoming req see
system.mem_ctrls.rdQLenPdf::16                      0                       # What read queue length does an incoming req see
system.mem_ctrls.rdQLenPdf::17                      0                       # What read queue length does an incoming req see
system.mem_ctrls.rdQLenPdf::18                      0                       # What read queue length does an incoming req see
system.mem_ctrls.rdQLenPdf::19                      0                       # What read queue length does an incoming req see
system.mem_ctrls.rdQLenPdf::20                      0                       # What read queue length does an incoming req see
system.mem_ctrls.rdQLenPdf::21                      0                       # What read queue length does an incoming req see
system.mem_ctrls.rdQLenPdf::22                      0                       # What read queue length does an incoming req see
system.mem_ctrls.rdQLenPdf::23                      0                       # What read queue length does an incoming req see
system.mem_ctrls.rdQLenPdf::24                      0                       # What read queue length does an incoming req see
system.mem_ctrls.rdQLenPdf::25                      0                       # What read queue length does an incoming req see
system.mem_ctrls.rdQLenPdf::26                      0                       # What read queue length does an incoming req see
system.mem_ctrls.rdQLenPdf::27                      0                       # What read queue length does an incoming req see
system.mem_ctrls.rdQLenPdf::28                      0                       # What read queue length does an incoming req see
system.mem_ctrls.rdQLenPdf::29                      0                       # What read queue length does an incoming req see
system.mem_ctrls.rdQLenPdf::30                      0                       # What read queue length does an incoming req see
system.mem_ctrls.rdQLenPdf::31                      0                       # What read queue length does an incoming req see
system.mem_ctrls.wrQLenPdf::0                       0                       # What write queue length does an incoming req see
system.mem_ctrls.wrQLenPdf::1                       0                       # What write queue length does an incoming req see
system.mem_ctrls.wrQLenPdf::2                       0                       # What write queue length does an incoming req see
system.mem_ctrls.wrQLenPdf::3                       0                       # What write queue length does an incoming req see
system.mem_ctrls.wrQLenPdf::4                       0                       # What write queue length does an incoming req see
system.mem_ctrls.wrQLenPdf::5                       0                       # What write queue length does an incoming req see
system.mem_ctrls.wrQLenPdf::6                       0                       # What write queue length does an incoming req see
system.mem_ctrls.wrQLenPdf::7                       0                       # What write queue length does an incoming req see
system.mem_ctrls.wrQLenPdf::8                       0                       # What write queue length does an incoming req see
system.mem_ctrls.wrQLenPdf::9                       0                       # What write queue length does an incoming req see
system.mem_ctrls.wrQLenPdf::10                      0                       # What write queue length does an incoming req see
system.mem_ctrls.wrQLenPdf::11                      0                       # What write queue length does an incoming req see
system.mem_ctrls.wrQLenPdf::12                      0                       # What write queue length does an incoming req see
system.mem_ctrls.wrQLenPdf::13                      0                       # What write queue length does an incoming req see
system.mem_ctrls.wrQLenPdf::14                      0                       # What write queue length does an incoming req see
system.mem_ctrls.wrQLenPdf::15                      1                       # What write queue length does an incoming req see
system.mem_ctrls.wrQLenPdf::16                      1                       # What write queue length does an incoming req see
system.mem_ctrls.wrQLenPdf::17                     19                       # What write queue length does an incoming req see
system.mem_ctrls.wrQLenPdf::18                     19                       # What write queue length does an incoming req see
system.mem_ctrls.wrQLenPdf::19                     19                       # What write queue length does an incoming req see
system.mem_ctrls.wrQLenPdf::20                     19                       # What write queue length does an incoming req see
system.mem_ctrls.wrQLenPdf::21                     19                       # What write queue length does an incoming req see
system.mem_ctrls.wrQLenPdf::22                     19                       # What write queue length does an incoming req see
system.mem_ctrls.wrQLenPdf::23                     19                       # What write queue length does an incoming req see
system.mem_ctrls.wrQLenPdf::24                     19                       # What write queue length does an incoming req see
system.mem_ctrls.wrQLenPdf::25                     19                       # What write queue length does an incoming req see
system.mem_ctrls.wrQLenPdf::26                     19                       # What write queue length does an incoming req see
system.mem_ctrls.wrQLenPdf::27                     20                       # What write queue length does an incoming req see
system.mem_ctrls.wrQLenPdf::28                     20                       # What write queue length does an incoming req see
system.mem_ctrls.wrQLenPdf::29                     20                       # What write queue length does an incoming req see
system.mem_ctrls.wrQLenPdf::30                     19                       # What write queue length does an incoming req see
system.mem_ctrls.wrQLenPdf::31                     19                       # What write queue length does an incoming req see
system.mem_ctrls.wrQLenPdf::32                     19                       # What write queue length does an incoming req see
system.mem_ctrls.wrQLenPdf::33                      0                       # What write queue length does an incoming req see
system.mem_ctrls.wrQLenPdf::34                      0                       # What write queue length does an incoming req see
system.mem_ctrls.wrQLenPdf::35                      0                       # What write queue length does an incoming req see
system.mem_ctrls.wrQLenPdf::36                      0                       # What write queue length does an incoming req see
system.mem_ctrls.wrQLenPdf::37                      0                       # What write queue length does an incoming req see
system.mem_ctrls.wrQLenPdf::38                      0                       # What write queue length does an incoming req see
system.mem_ctrls.wrQLenPdf::39                      0                       # What write queue length does an incoming req see
system.mem_ctrls.wrQLenPdf::40                      0                       # What write queue length does an incoming req see
system.mem_ctrls.wrQLenPdf::41                      0                       # What write queue length does an incoming req see
system.mem_ctrls.wrQLenPdf::42                      0                       # What write queue length does an incoming req see
system.mem_ctrls.wrQLenPdf::43                      0                       # What write queue length does an incoming req see
system.mem_ctrls.wrQLenPdf::44                      0                       # What write queue length does an incoming req see
system.mem_ctrls.wrQLenPdf::45                      0                       # What write queue length does an incoming req see
system.mem_ctrls.wrQLenPdf::46                      0                       # What write queue length does an incoming req see
system.mem_ctrls.wrQLenPdf::47                      0                       # What write queue length does an incoming req see
system.mem_ctrls.wrQLenPdf::48                      0                       # What write queue length does an incoming req see
system.mem_ctrls.wrQLenPdf::49                      0                       # What write queue length does an incoming req see
system.mem_ctrls.wrQLenPdf::50                      0                       # What write queue length does an incoming req see
system.mem_ctrls.wrQLenPdf::51                      0                       # What write queue length does an incoming req see
system.mem_ctrls.wrQLenPdf::52                      0                       # What write queue length does an incoming req see
system.mem_ctrls.wrQLenPdf::53                      0                       # What write queue length does an incoming req see
system.mem_ctrls.wrQLenPdf::54                      0                       # What write queue length does an incoming req see
system.mem_ctrls.wrQLenPdf::55                      0                       # What write queue length does an incoming req see
system.mem_ctrls.wrQLenPdf::56                      0                       # What write queue length does an incoming req see
system.mem_ctrls.wrQLenPdf::57                      0                       # What write queue length does an incoming req see
system.mem_ctrls.wrQLenPdf::58                      0                       # What write queue length does an incoming req see
system.mem_ctrls.wrQLenPdf::59                      0                       # What write queue length does an incoming req see
system.mem_ctrls.wrQLenPdf::60                      0                       # What write queue length does an incoming req see
system.mem_ctrls.wrQLenPdf::61                      0                       # What write queue length does an incoming req see
system.mem_ctrls.wrQLenPdf::62                      0                       # What write queue length does an incoming req see
system.mem_ctrls.wrQLenPdf::63                      0                       # What write queue length does an incoming req see
system.mem_ctrls.bytesPerActivate::samples        96790                       # Bytes accessed per row activation
system.mem_ctrls.bytesPerActivate::mean    124.401612                       # Bytes accessed per row activation
system.mem_ctrls.bytesPerActivate::gmean   107.122072                       # Bytes accessed per row activation
system.mem_ctrls.bytesPerActivate::stdev    74.595061                       # Bytes accessed per row activation
system.mem_ctrls.bytesPerActivate::0-127        44266     45.73%     45.73% # Bytes accessed per row activation
system.mem_ctrls.bytesPerActivate::128-255        42662     44.08%     89.81% # Bytes accessed per row activation
system.mem_ctrls.bytesPerActivate::256-383         8604      8.89%     98.70% # Bytes accessed per row activation
system.mem_ctrls.bytesPerActivate::384-511         1117      1.15%     99.85% # Bytes accessed per row activation
system.mem_ctrls.bytesPerActivate::512-639          121      0.13%     99.98% # Bytes accessed per row activation
system.mem_ctrls.bytesPerActivate::640-767            8      0.01%     99.99% # Bytes accessed per row activation
system.mem_ctrls.bytesPerActivate::768-895            4      0.00%     99.99% # Bytes accessed per row activation
system.mem_ctrls.bytesPerActivate::896-1023            3      0.00%     99.99% # Bytes accessed per row activation
system.mem_ctrls.bytesPerActivate::1024-1151            5      0.01%    100.00% # Bytes accessed per row activation
system.mem_ctrls.bytesPerActivate::total        96790                       # Bytes accessed per row activation
system.mem_ctrls.rdPerTurnAround::samples           19                       # Reads before turning the bus around for writes
system.mem_ctrls.rdPerTurnAround::mean    9703.421053                       # Reads before turning the bus around for writes
system.mem_ctrls.rdPerTurnAround::gmean   9462.489482                       # Reads before turning the bus around for writes
system.mem_ctrls.rdPerTurnAround::stdev   2206.467094                       # Reads before turning the bus around for writes
system.mem_ctrls.rdPerTurnAround::5632-6143            1      5.26%      5.26% # Reads before turning the bus around for writes
system.mem_ctrls.rdPerTurnAround::6656-7167            2     10.53%     15.79% # Reads before turning the bus around for writes
system.mem_ctrls.rdPerTurnAround::7168-7679            2     10.53%     26.32% # Reads before turning the bus around for writes
system.mem_ctrls.rdPerTurnAround::7680-8191            1      5.26%     31.58% # Reads before turning the bus around for writes
system.mem_ctrls.rdPerTurnAround::8704-9215            2     10.53%     42.11% # Reads before turning the bus around for writes
system.mem_ctrls.rdPerTurnAround::9216-9727            2     10.53%     52.63% # Reads before turning the bus around for writes
system.mem_ctrls.rdPerTurnAround::9728-10239            1      5.26%     57.89% # Reads before turning the bus around for writes
system.mem_ctrls.rdPerTurnAround::10240-10751            2     10.53%     68.42% # Reads before turning the bus around for writes
system.mem_ctrls.rdPerTurnAround::10752-11263            1      5.26%     73.68% # Reads before turning the bus around for writes
system.mem_ctrls.rdPerTurnAround::11264-11775            2     10.53%     84.21% # Reads before turning the bus around for writes
system.mem_ctrls.rdPerTurnAround::12800-13311            2     10.53%     94.74% # Reads before turning the bus around for writes
system.mem_ctrls.rdPerTurnAround::13312-13823            1      5.26%    100.00% # Reads before turning the bus around for writes
system.mem_ctrls.rdPerTurnAround::total            19                       # Reads before turning the bus around for writes
system.mem_ctrls.wrPerTurnAround::samples           19                       # Writes before turning the bus around for reads
system.mem_ctrls.wrPerTurnAround::mean      16.105263                       # Writes before turning the bus around for reads
system.mem_ctrls.wrPerTurnAround::gmean     16.099494                       # Writes before turning the bus around for reads
system.mem_ctrls.wrPerTurnAround::stdev      0.458831                       # Writes before turning the bus around for reads
system.mem_ctrls.wrPerTurnAround::16               18     94.74%     94.74% # Writes before turning the bus around for reads
system.mem_ctrls.wrPerTurnAround::18                1      5.26%    100.00% # Writes before turning the bus around for reads
system.mem_ctrls.wrPerTurnAround::total            19                       # Writes before turning the bus around for reads
system.mem_ctrls.totQLat                   4679627500                       # Total ticks spent queuing
system.mem_ctrls.totMemAccLat              8201271250                       # Total ticks spent from burst creation until serviced by the DRAM
system.mem_ctrls.totBusLat                  939105000                       # Total ticks spent in databus transfers
system.mem_ctrls.avgQLat                     24915.36                       # Average queueing delay per DRAM burst
system.mem_ctrls.avgBusLat                    5000.00                       # Average bus latency per DRAM burst
system.mem_ctrls.avgMemAccLat                43665.36                       # Average memory access latency per DRAM burst
system.mem_ctrls.avgRdBW                       787.34                       # Average DRAM read bandwidth in MiByte/s
system.mem_ctrls.avgWrBW                         1.28                       # Average achieved write bandwidth in MiByte/s
system.mem_ctrls.avgRdBWSys                    787.49                       # Average system read bandwidth in MiByte/s
system.mem_ctrls.avgWrBWSys                      1.30                       # Average system write bandwidth in MiByte/s
system.mem_ctrls.peakBW                      12800.00                       # Theoretical peak bandwidth in MiByte/s
system.mem_ctrls.busUtil                         6.16                       # Data bus utilization in percentage
system.mem_ctrls.busUtilRead                     6.15                       # Data bus utilization in percentage for reads
system.mem_ctrls.busUtilWrite                    0.01                       # Data bus utilization in percentage for writes
system.mem_ctrls.avgRdQLen                       1.30                       # Average read queue length when enqueuing
system.mem_ctrls.avgWrQLen                      25.00                       # Average write queue length when enqueuing
system.mem_ctrls.readRowHits                    91083                       # Number of row buffer hits during reads
system.mem_ctrls.writeRowHits                     260                       # Number of row buffer hits during writes
system.mem_ctrls.readRowHitRate                 48.49                       # Row buffer hit rate for reads
system.mem_ctrls.writeRowHitRate                84.14                       # Row buffer hit rate for writes
system.mem_ctrls.avgGap                      81135.32                       # Average gap between requests
system.mem_ctrls.pageHitRate                    48.55                       # Row buffer hit rate, read and write combined
system.mem_ctrls_0.actEnergy                348567660                       # Energy for activate commands per rank (pJ)
system.mem_ctrls_0.preEnergy                185290875                       # Energy for precharge commands per rank (pJ)
system.mem_ctrls_0.readEnergy               674323020                       # Energy for read commands per rank (pJ)
system.mem_ctrls_0.writeEnergy                1461600                       # Energy for write commands per rank (pJ)
system.mem_ctrls_0.refreshEnergy         1205923680.000000                       # Energy for refresh commands per rank (pJ)
system.mem_ctrls_0.actBackEnergy           1610295030                       # Energy for active background per rank (pJ)
system.mem_ctrls_0.preBackEnergy             24542880                       # Energy for precharge background per rank (pJ)
system.mem_ctrls_0.actPowerDownEnergy      5175868470                       # Energy for active power-down per rank (pJ)
system.mem_ctrls_0.prePowerDownEnergy       119505120                       # Energy for precharge power-down per rank (pJ)
system.mem_ctrls_0.selfRefreshEnergy          3572280                       # Energy for self refresh per rank (pJ)
system.mem_ctrls_0.totalEnergy             9349350615                       # Total energy per rank (pJ)
system.mem_ctrls_0.averagePower            612.375705                       # Core power per rank (mW)
system.mem_ctrls_0.totalIdleTime          11671694750                       # Total Idle time Per DRAM Rank
system.mem_ctrls_0.memoryStateTime::IDLE     10087500                       # Time in different power states
system.mem_ctrls_0.memoryStateTime::REF     510132000                       # Time in different power states
system.mem_ctrls_0.memoryStateTime::SREF     10282750                       # Time in different power states
system.mem_ctrls_0.memoryStateTime::PRE_PDN    311323500                       # Time in different power states
system.mem_ctrls_0.memoryStateTime::ACT    3074794250                       # Time in different power states
system.mem_ctrls_0.memoryStateTime::ACT_PDN  11350724125                       # Time in different power states
system.mem_ctrls_1.actEnergy                342470100                       # Energy for activate commands per rank (pJ)
system.mem_ctrls_1.preEnergy                182027175                       # Energy for precharge commands per rank (pJ)
system.mem_ctrls_1.readEnergy               666726060                       # Energy for read commands per rank (pJ)
system.mem_ctrls_1.writeEnergy                 135720                       # Energy for write commands per rank (pJ)
system.mem_ctrls_1.refreshEnergy         1206538320.000000                       # Energy for refresh commands per rank (pJ)
system.mem_ctrls_1.actBackEnergy           1587370200                       # Energy for active background per rank (pJ)
system.mem_ctrls_1.preBackEnergy             24906240                       # Energy for precharge background per rank (pJ)
system.mem_ctrls_1.actPowerDownEnergy      5221735800                       # Energy for active power-down per rank (pJ)
system.mem_ctrls_1.prePowerDownEnergy       101860800                       # Energy for precharge power-down per rank (pJ)
system.mem_ctrls_1.selfRefreshEnergy          2850120                       # Energy for self refresh per rank (pJ)
system.mem_ctrls_1.totalEnergy             9336620535                       # Total energy per rank (pJ)
system.mem_ctrls_1.averagePower            611.541894                       # Core power per rank (mW)
system.mem_ctrls_1.totalIdleTime          11721818000                       # Total Idle time Per DRAM Rank
system.mem_ctrls_1.memoryStateTime::IDLE     10542000                       # Time in different power states
system.mem_ctrls_1.memoryStateTime::REF     510398000                       # Time in different power states
system.mem_ctrls_1.memoryStateTime::SREF      4973000                       # Time in different power states
system.mem_ctrls_1.memoryStateTime::PRE_PDN    265134000                       # Time in different power states
system.mem_ctrls_1.memoryStateTime::ACT    3024534000                       # Time in different power states
system.mem_ctrls_1.memoryStateTime::ACT_PDN  11451763125                       # Time in different power states
system.pwrStateResidencyTicks::UNDEFINED  15267344125                       # Cumulative time (in ticks) in various power states
system.cpu0.branchPred.lookups                1462685                       # Number of BP lookups
system.cpu0.branchPred.condPredicted          1462685                       # Number of conditional branches predicted
system.cpu0.branchPred.condIncorrect            52596                       # Number of conditional branches incorrect
system.cpu0.branchPred.BTBLookups              972898                       # Number of BTB lookups
system.cpu0.branchPred.BTBHits                      0                       # Number of BTB hits
system.cpu0.branchPred.BTBCorrect                   0                       # Number of correct BTB predictions (this stat may not work properly.
system.cpu0.branchPred.BTBHitPct             0.000000                       # BTB Hit Percentage
system.cpu0.branchPred.usedRAS                  33069                       # Number of times the RAS was used to get a target.
system.cpu0.branchPred.RASInCorrect              5275                       # Number of incorrect RAS predictions.
system.cpu0.branchPred.indirectLookups         972898                       # Number of indirect predictor lookups.
system.cpu0.branchPred.indirectHits            645088                       # Number of indirect target hits.
system.cpu0.branchPred.indirectMisses          327810                       # Number of indirect misses.
system.cpu0.branchPredindirectMispredicted        13152                       # Number of mispredicted indirect branches.
system.cpu_voltage_domain.voltage                   1                       # Voltage in Volts
system.cpu_clk_domain.clock                       500                       # Clock period in ticks
system.cpu0.dtb.walker.pwrStateResidencyTicks::UNDEFINED  15267344125                       # Cumulative time (in ticks) in various power states
system.cpu0.dtb.rdAccesses                     709928                       # TLB accesses on read requests
system.cpu0.dtb.wrAccesses                      37704                       # TLB accesses on write requests
system.cpu0.dtb.rdMisses                       162905                       # TLB misses on read requests
system.cpu0.dtb.wrMisses                          698                       # TLB misses on write requests
system.cpu0.apic_clk_domain.clock                8000                       # Clock period in ticks
system.cpu0.interrupts.pwrStateResidencyTicks::UNDEFINED  15267344125                       # Cumulative time (in ticks) in various power states
system.cpu0.itb.walker.pwrStateResidencyTicks::UNDEFINED  15267344125                       # Cumulative time (in ticks) in various power states
system.cpu0.itb.rdAccesses                          0                       # TLB accesses on read requests
system.cpu0.itb.wrAccesses                    1276010                       # TLB accesses on write requests
system.cpu0.itb.rdMisses                            0                       # TLB misses on read requests
system.cpu0.itb.wrMisses                         2446                       # TLB misses on write requests
system.cpu0.workload.numSyscalls                    0                       # Number of system calls
system.cpu0.pwrStateResidencyTicks::ON    15267344125                       # Cumulative time (in ticks) in various power states
system.cpu0.numCycles                        30534688                       # number of cpu cycles simulated
system.cpu0.numWorkItemsStarted                     0                       # number of work items this cpu started
system.cpu0.numWorkItemsCompleted                   0                       # number of work items this cpu completed
system.cpu0.fetch.icacheStallCycles           1299558                       # Number of cycles fetch is stalled on an Icache miss
system.cpu0.fetch.Insts                       4153946                       # Number of instructions fetch has processed
system.cpu0.fetch.Branches                    1462685                       # Number of branches that fetch encountered
system.cpu0.fetch.predictedBranches            678157                       # Number of branches that fetch has predicted taken
system.cpu0.fetch.Cycles                     29151460                       # Number of cycles fetch has run and was not squashing or blocked
system.cpu0.fetch.SquashCycles                 106870                       # Number of cycles fetch has spent squashing
system.cpu0.fetch.TlbCycles                       419                       # Number of cycles fetch has spent waiting for tlb
system.cpu0.fetch.MiscStallCycles                 610                       # Number of cycles fetch has spent waiting on interrupts, or bad addresses, or out of MSHRs
system.cpu0.fetch.PendingTrapStallCycles        19479                       # Number of stall cycles due to pending traps
system.cpu0.fetch.CacheLines                  1273564                       # Number of cache lines fetched
system.cpu0.fetch.IcacheSquashes                 5415                       # Number of outstanding Icache misses that were squashed
system.cpu0.fetch.ItlbSquashes                      2                       # Number of outstanding ITLB misses that were squashed
system.cpu0.fetch.rateDist::samples          30524961                       # Number of instructions fetched each cycle (Total)
system.cpu0.fetch.rateDist::mean             0.273091                       # Number of instructions fetched each cycle (Total)
system.cpu0.fetch.rateDist::stdev            1.311328                       # Number of instructions fetched each cycle (Total)
system.cpu0.fetch.rateDist::underflows              0      0.00%      0.00% # Number of instructions fetched each cycle (Total)
system.cpu0.fetch.rateDist::0                28871581     94.58%     94.58% # Number of instructions fetched each cycle (Total)
system.cpu0.fetch.rateDist::1                   10337      0.03%     94.62% # Number of instructions fetched each cycle (Total)
system.cpu0.fetch.rateDist::2                  654542      2.14%     96.76% # Number of instructions fetched each cycle (Total)
system.cpu0.fetch.rateDist::3                   18503      0.06%     96.82% # Number of instructions fetched each cycle (Total)
system.cpu0.fetch.rateDist::4                  118957      0.39%     97.21% # Number of instructions fetched each cycle (Total)
system.cpu0.fetch.rateDist::5                   46699      0.15%     97.36% # Number of instructions fetched each cycle (Total)
system.cpu0.fetch.rateDist::6                   83215      0.27%     97.64% # Number of instructions fetched each cycle (Total)
system.cpu0.fetch.rateDist::7                   16469      0.05%     97.69% # Number of instructions fetched each cycle (Total)
system.cpu0.fetch.rateDist::8                  704658      2.31%    100.00% # Number of instructions fetched each cycle (Total)
system.cpu0.fetch.rateDist::overflows               0      0.00%    100.00% # Number of instructions fetched each cycle (Total)
system.cpu0.fetch.rateDist::min_value               0                       # Number of instructions fetched each cycle (Total)
system.cpu0.fetch.rateDist::max_value               8                       # Number of instructions fetched each cycle (Total)
system.cpu0.fetch.rateDist::total            30524961                       # Number of instructions fetched each cycle (Total)
system.cpu0.fetch.branchRate                 0.047902                       # Number of branch fetches per cycle
system.cpu0.fetch.rate                       0.136040                       # Number of inst fetches per cycle
system.cpu0.decode.IdleCycles                  600160                       # Number of cycles decode is idle
system.cpu0.decode.BlockedCycles             28815849                       # Number of cycles decode is blocked
system.cpu0.decode.RunCycles                   740403                       # Number of cycles decode is running
system.cpu0.decode.UnblockCycles               315114                       # Number of cycles decode is unblocking
system.cpu0.decode.SquashCycles                 53435                       # Number of cycles decode is squashing
system.cpu0.decode.DecodedInsts               6882776                       # Number of instructions handled by decode
system.cpu0.rename.SquashCycles                 53435                       # Number of cycles rename is squashing
system.cpu0.rename.IdleCycles                  689909                       # Number of cycles rename is idle
system.cpu0.rename.BlockCycles               27470586                       # Number of cycles rename is blocking
system.cpu0.rename.serializeStallCycles          7489                       # count of cycles rename stalled for serializing inst
system.cpu0.rename.RunCycles                   887963                       # Number of cycles rename is running
system.cpu0.rename.UnblockCycles              1415579                       # Number of cycles rename is unblocking
system.cpu0.rename.RenamedInsts               6628863                       # Number of instructions processed by rename
system.cpu0.rename.ROBFullEvents                64594                       # Number of times rename has blocked due to ROB full
system.cpu0.rename.IQFullEvents               1109558                       # Number of times rename has blocked due to IQ full
system.cpu0.rename.LQFullEvents                271524                       # Number of times rename has blocked due to LQ full
system.cpu0.rename.SQFullEvents                  1531                       # Number of times rename has blocked due to SQ full
system.cpu0.rename.RenamedOperands            7920404                       # Number of destination operands rename has renamed
system.cpu0.rename.RenameLookups             18631187                       # Number of register rename lookups that rename has made
system.cpu0.rename.int_rename_lookups         8576732                       # Number of integer rename lookups
system.cpu0.rename.fp_rename_lookups            29520                       # Number of floating rename lookups
system.cpu0.rename.CommittedMaps              3130377                       # Number of HB maps that are committed
system.cpu0.rename.UndoneMaps                 4790024                       # Number of HB maps that are undone due to squashing
system.cpu0.rename.serializingInsts               235                       # count of serializing insts renamed
system.cpu0.rename.tempSerializingInsts           281                       # count of temporary serializing insts renamed
system.cpu0.rename.skidInsts                  2053041                       # count of insts added to the skid buffer
system.cpu0.memDep0.insertedLoads             1232055                       # Number of loads inserted to the mem dependence unit.
system.cpu0.memDep0.insertedStores              53236                       # Number of stores inserted to the mem dependence unit.
system.cpu0.memDep0.conflictingLoads             2412                       # Number of conflicting loads.
system.cpu0.memDep0.conflictingStores            2845                       # Number of conflicting stores.
system.cpu0.iq.iqInstsAdded                   6352285                       # Number of instructions added to the IQ (excludes non-spec)
system.cpu0.iq.iqNonSpecInstsAdded               3164                       # Number of non-speculative instructions added to the IQ
system.cpu0.iq.iqInstsIssued                  4587918                       # Number of instructions issued
system.cpu0.iq.iqSquashedInstsIssued             4361                       # Number of squashed instructions issued
system.cpu0.iq.iqSquashedInstsExamined        3740900                       # Number of squashed instructions iterated over during squash; mainly for profiling
system.cpu0.iq.iqSquashedOperandsExamined      8124602                       # Number of squashed operands that are examined and possibly removed from graph
system.cpu0.iq.iqSquashedNonSpecRemoved          3164                       # Number of squashed non-spec instructions that were removed
system.cpu0.iq.issued_per_cycle::samples     30524961                       # Number of insts issued each cycle
system.cpu0.iq.issued_per_cycle::mean        0.150301                       # Number of insts issued each cycle
system.cpu0.iq.issued_per_cycle::stdev       0.691683                       # Number of insts issued each cycle
system.cpu0.iq.issued_per_cycle::underflows            0      0.00%      0.00% # Number of insts issued each cycle
system.cpu0.iq.issued_per_cycle::0           28554485     93.54%     93.54% # Number of insts issued each cycle
system.cpu0.iq.issued_per_cycle::1             817761      2.68%     96.22% # Number of insts issued each cycle
system.cpu0.iq.issued_per_cycle::2             431513      1.41%     97.64% # Number of insts issued each cycle
system.cpu0.iq.issued_per_cycle::3             289355      0.95%     98.59% # Number of insts issued each cycle
system.cpu0.iq.issued_per_cycle::4             267611      0.88%     99.46% # Number of insts issued each cycle
system.cpu0.iq.issued_per_cycle::5              68603      0.22%     99.69% # Number of insts issued each cycle
system.cpu0.iq.issued_per_cycle::6              59976      0.20%     99.88% # Number of insts issued each cycle
system.cpu0.iq.issued_per_cycle::7              19505      0.06%     99.95% # Number of insts issued each cycle
system.cpu0.iq.issued_per_cycle::8              16152      0.05%    100.00% # Number of insts issued each cycle
system.cpu0.iq.issued_per_cycle::overflows            0      0.00%    100.00% # Number of insts issued each cycle
system.cpu0.iq.issued_per_cycle::min_value            0                       # Number of insts issued each cycle
system.cpu0.iq.issued_per_cycle::max_value            8                       # Number of insts issued each cycle
system.cpu0.iq.issued_per_cycle::total       30524961                       # Number of insts issued each cycle
system.cpu0.iq.fu_full::No_OpClass                  0      0.00%      0.00% # attempts to use FU when none available
system.cpu0.iq.fu_full::IntAlu                   8106     67.61%     67.61% # attempts to use FU when none available
system.cpu0.iq.fu_full::IntMult                     0      0.00%     67.61% # attempts to use FU when none available
system.cpu0.iq.fu_full::IntDiv                      0      0.00%     67.61% # attempts to use FU when none available
system.cpu0.iq.fu_full::FloatAdd                  865      7.21%     74.83% # attempts to use FU when none available
system.cpu0.iq.fu_full::FloatCmp                    0      0.00%     74.83% # attempts to use FU when none available
system.cpu0.iq.fu_full::FloatCvt                    0      0.00%     74.83% # attempts to use FU when none available
system.cpu0.iq.fu_full::FloatMult                   0      0.00%     74.83% # attempts to use FU when none available
system.cpu0.iq.fu_full::FloatMultAcc                0      0.00%     74.83% # attempts to use FU when none available
system.cpu0.iq.fu_full::FloatDiv                    0      0.00%     74.83% # attempts to use FU when none available
system.cpu0.iq.fu_full::FloatMisc                   0      0.00%     74.83% # attempts to use FU when none available
system.cpu0.iq.fu_full::FloatSqrt                   0      0.00%     74.83% # attempts to use FU when none available
system.cpu0.iq.fu_full::SimdAdd                     0      0.00%     74.83% # attempts to use FU when none available
system.cpu0.iq.fu_full::SimdAddAcc                  0      0.00%     74.83% # attempts to use FU when none available
system.cpu0.iq.fu_full::SimdAlu                     0      0.00%     74.83% # attempts to use FU when none available
system.cpu0.iq.fu_full::SimdCmp                     0      0.00%     74.83% # attempts to use FU when none available
system.cpu0.iq.fu_full::SimdCvt                     0      0.00%     74.83% # attempts to use FU when none available
system.cpu0.iq.fu_full::SimdMisc                    0      0.00%     74.83% # attempts to use FU when none available
system.cpu0.iq.fu_full::SimdMult                    0      0.00%     74.83% # attempts to use FU when none available
system.cpu0.iq.fu_full::SimdMultAcc                 0      0.00%     74.83% # attempts to use FU when none available
system.cpu0.iq.fu_full::SimdShift                   0      0.00%     74.83% # attempts to use FU when none available
system.cpu0.iq.fu_full::SimdShiftAcc                0      0.00%     74.83% # attempts to use FU when none available
system.cpu0.iq.fu_full::SimdSqrt                    0      0.00%     74.83% # attempts to use FU when none available
system.cpu0.iq.fu_full::SimdFloatAdd                0      0.00%     74.83% # attempts to use FU when none available
system.cpu0.iq.fu_full::SimdFloatAlu                0      0.00%     74.83% # attempts to use FU when none available
system.cpu0.iq.fu_full::SimdFloatCmp                0      0.00%     74.83% # attempts to use FU when none available
system.cpu0.iq.fu_full::SimdFloatCvt                0      0.00%     74.83% # attempts to use FU when none available
system.cpu0.iq.fu_full::SimdFloatDiv                0      0.00%     74.83% # attempts to use FU when none available
system.cpu0.iq.fu_full::SimdFloatMisc               0      0.00%     74.83% # attempts to use FU when none available
system.cpu0.iq.fu_full::SimdFloatMult               0      0.00%     74.83% # attempts to use FU when none available
system.cpu0.iq.fu_full::SimdFloatMultAcc            0      0.00%     74.83% # attempts to use FU when none available
system.cpu0.iq.fu_full::SimdFloatSqrt               0      0.00%     74.83% # attempts to use FU when none available
system.cpu0.iq.fu_full::MemRead                  2694     22.47%     97.30% # attempts to use FU when none available
system.cpu0.iq.fu_full::MemWrite                  157      1.31%     98.61% # attempts to use FU when none available
system.cpu0.iq.fu_full::FloatMemRead              106      0.88%     99.49% # attempts to use FU when none available
system.cpu0.iq.fu_full::FloatMemWrite              61      0.51%    100.00% # attempts to use FU when none available
system.cpu0.iq.fu_full::IprAccess                   0      0.00%    100.00% # attempts to use FU when none available
system.cpu0.iq.fu_full::InstPrefetch                0      0.00%    100.00% # attempts to use FU when none available
system.cpu0.iq.FU_type_0::No_OpClass            11002      0.24%      0.24% # Type of FU issued
system.cpu0.iq.FU_type_0::IntAlu              3783330     82.46%     82.70% # Type of FU issued
system.cpu0.iq.FU_type_0::IntMult                 582      0.01%     82.72% # Type of FU issued
system.cpu0.iq.FU_type_0::IntDiv                 7187      0.16%     82.87% # Type of FU issued
system.cpu0.iq.FU_type_0::FloatAdd              10753      0.23%     83.11% # Type of FU issued
system.cpu0.iq.FU_type_0::FloatCmp                  0      0.00%     83.11% # Type of FU issued
system.cpu0.iq.FU_type_0::FloatCvt                  0      0.00%     83.11% # Type of FU issued
system.cpu0.iq.FU_type_0::FloatMult                 0      0.00%     83.11% # Type of FU issued
system.cpu0.iq.FU_type_0::FloatMultAcc              0      0.00%     83.11% # Type of FU issued
system.cpu0.iq.FU_type_0::FloatDiv                  0      0.00%     83.11% # Type of FU issued
system.cpu0.iq.FU_type_0::FloatMisc                 0      0.00%     83.11% # Type of FU issued
system.cpu0.iq.FU_type_0::FloatSqrt                 0      0.00%     83.11% # Type of FU issued
system.cpu0.iq.FU_type_0::SimdAdd                   0      0.00%     83.11% # Type of FU issued
system.cpu0.iq.FU_type_0::SimdAddAcc                0      0.00%     83.11% # Type of FU issued
system.cpu0.iq.FU_type_0::SimdAlu                   0      0.00%     83.11% # Type of FU issued
system.cpu0.iq.FU_type_0::SimdCmp                   0      0.00%     83.11% # Type of FU issued
system.cpu0.iq.FU_type_0::SimdCvt                   0      0.00%     83.11% # Type of FU issued
system.cpu0.iq.FU_type_0::SimdMisc                  0      0.00%     83.11% # Type of FU issued
system.cpu0.iq.FU_type_0::SimdMult                  0      0.00%     83.11% # Type of FU issued
system.cpu0.iq.FU_type_0::SimdMultAcc               0      0.00%     83.11% # Type of FU issued
system.cpu0.iq.FU_type_0::SimdShift                 0      0.00%     83.11% # Type of FU issued
system.cpu0.iq.FU_type_0::SimdShiftAcc              0      0.00%     83.11% # Type of FU issued
system.cpu0.iq.FU_type_0::SimdSqrt                  0      0.00%     83.11% # Type of FU issued
system.cpu0.iq.FU_type_0::SimdFloatAdd              0      0.00%     83.11% # Type of FU issued
system.cpu0.iq.FU_type_0::SimdFloatAlu              0      0.00%     83.11% # Type of FU issued
system.cpu0.iq.FU_type_0::SimdFloatCmp              0      0.00%     83.11% # Type of FU issued
system.cpu0.iq.FU_type_0::SimdFloatCvt              0      0.00%     83.11% # Type of FU issued
system.cpu0.iq.FU_type_0::SimdFloatDiv              0      0.00%     83.11% # Type of FU issued
system.cpu0.iq.FU_type_0::SimdFloatMisc             0      0.00%     83.11% # Type of FU issued
system.cpu0.iq.FU_type_0::SimdFloatMult             0      0.00%     83.11% # Type of FU issued
system.cpu0.iq.FU_type_0::SimdFloatMultAcc            0      0.00%     83.11% # Type of FU issued
system.cpu0.iq.FU_type_0::SimdFloatSqrt             0      0.00%     83.11% # Type of FU issued
system.cpu0.iq.FU_type_0::MemRead              732760     15.97%     99.08% # Type of FU issued
system.cpu0.iq.FU_type_0::MemWrite              39983      0.87%     99.95% # Type of FU issued
system.cpu0.iq.FU_type_0::FloatMemRead           2093      0.05%    100.00% # Type of FU issued
system.cpu0.iq.FU_type_0::FloatMemWrite           228      0.00%    100.00% # Type of FU issued
system.cpu0.iq.FU_type_0::IprAccess                 0      0.00%    100.00% # Type of FU issued
system.cpu0.iq.FU_type_0::InstPrefetch              0      0.00%    100.00% # Type of FU issued
system.cpu0.iq.FU_type_0::total               4587918                       # Type of FU issued
system.cpu0.iq.rate                          0.150253                       # Inst issue rate
system.cpu0.iq.fu_busy_cnt                      11989                       # FU busy when requested
system.cpu0.iq.fu_busy_rate                  0.002613                       # FU busy rate (busy events/executed inst)
system.cpu0.iq.int_inst_queue_reads          39689671                       # Number of integer instruction queue reads
system.cpu0.iq.int_inst_queue_writes         10071072                       # Number of integer instruction queue writes
system.cpu0.iq.int_inst_queue_wakeup_accesses      4432453                       # Number of integer instruction queue wakeup accesses
system.cpu0.iq.fp_inst_queue_reads              27476                       # Number of floating instruction queue reads
system.cpu0.iq.fp_inst_queue_writes             25282                       # Number of floating instruction queue writes
system.cpu0.iq.fp_inst_queue_wakeup_accesses        11801                       # Number of floating instruction queue wakeup accesses
system.cpu0.iq.vec_inst_queue_reads                 0                       # Number of vector instruction queue reads
system.cpu0.iq.vec_inst_queue_writes                0                       # Number of vector instruction queue writes
system.cpu0.iq.vec_inst_queue_wakeup_accesses            0                       # Number of vector instruction queue wakeup accesses
system.cpu0.iq.int_alu_accesses               4574772                       # Number of integer alu accesses
system.cpu0.iq.fp_alu_accesses                  14133                       # Number of floating point alu accesses
system.cpu0.iq.vec_alu_accesses                     0                       # Number of vector alu accesses
system.cpu0.iew.lsq.thread0.forwLoads            4095                       # Number of loads that had data forwarded from stores
system.cpu0.iew.lsq.thread0.invAddrLoads            0                       # Number of loads ignored due to an invalid address
system.cpu0.iew.lsq.thread0.squashedLoads       727809                       # Number of loads squashed
system.cpu0.iew.lsq.thread0.ignoredResponses          114                       # Number of memory responses ignored because the instruction is squashed
system.cpu0.iew.lsq.thread0.memOrderViolation            5                       # Number of memory ordering violations
system.cpu0.iew.lsq.thread0.squashedStores        31698                       # Number of stores squashed
system.cpu0.iew.lsq.thread0.invAddrSwpfs            0                       # Number of software prefetches ignored due to an invalid address
system.cpu0.iew.lsq.thread0.blockedLoads            0                       # Number of blocked loads due to partial load-store forwarding
system.cpu0.iew.lsq.thread0.rescheduledLoads           44                       # Number of loads that were rescheduled
system.cpu0.iew.lsq.thread0.cacheBlocked         1784                       # Number of times an access to memory failed due to the cache being blocked
system.cpu0.iew.iewIdleCycles                       0                       # Number of cycles IEW is idle
system.cpu0.iew.iewSquashCycles                 53435                       # Number of cycles IEW is squashing
system.cpu0.iew.iewBlockCycles               25865019                       # Number of cycles IEW is blocking
system.cpu0.iew.iewUnblockCycles               282519                       # Number of cycles IEW is unblocking
system.cpu0.iew.iewDispatchedInsts            6355449                       # Number of instructions dispatched to IQ
system.cpu0.iew.iewDispSquashedInsts             2946                       # Number of squashed instructions skipped by dispatch
system.cpu0.iew.iewDispLoadInsts              1232055                       # Number of dispatched load instructions
system.cpu0.iew.iewDispStoreInsts               53236                       # Number of dispatched store instructions
system.cpu0.iew.iewDispNonSpecInsts              1199                       # Number of dispatched non-speculative instructions
system.cpu0.iew.iewIQFullEvents                 13146                       # Number of times the IQ has become full, causing a stall
system.cpu0.iew.iewLSQFullEvents                64420                       # Number of times the LSQ has become full, causing a stall
system.cpu0.iew.memOrderViolationEvents             5                       # Number of memory order violations
system.cpu0.iew.predictedTakenIncorrect         32722                       # Number of branches that were predicted taken incorrectly
system.cpu0.iew.predictedNotTakenIncorrect        25375                       # Number of branches that were predicted not taken incorrectly
system.cpu0.iew.branchMispredicts               58097                       # Number of branch mispredicts detected at execute
system.cpu0.iew.iewExecutedInsts              4526041                       # Number of executed instructions
system.cpu0.iew.iewExecLoadInsts               709755                       # Number of load instructions executed
system.cpu0.iew.iewExecSquashedInsts            61877                       # Number of squashed instructions skipped in execute
system.cpu0.iew.exec_swp                            0                       # number of swp insts executed
system.cpu0.iew.exec_nop                            0                       # number of nop insts executed
system.cpu0.iew.exec_refs                      747443                       # number of memory reference insts executed
system.cpu0.iew.exec_branches                  569647                       # Number of branches executed
system.cpu0.iew.exec_stores                     37688                       # Number of stores executed
system.cpu0.iew.exec_rate                    0.148226                       # Inst execution rate
system.cpu0.iew.wb_sent                       4455415                       # cumulative count of insts sent to commit
system.cpu0.iew.wb_count                      4444254                       # cumulative count of insts written-back
system.cpu0.iew.wb_producers                  3221723                       # num instructions producing a value
system.cpu0.iew.wb_consumers                  5160836                       # num instructions consuming a value
system.cpu0.iew.wb_rate                      0.145548                       # insts written-back per cycle
system.cpu0.iew.wb_fanout                    0.624264                       # average fanout of values written-back
system.cpu0.commit.commitSquashedInsts        3741631                       # The number of squashed insts skipped by commit
system.cpu0.commit.branchMispredicts            53431                       # The number of times a branch was mispredicted
system.cpu0.commit.committed_per_cycle::samples     30005798                       # Number of insts commited each cycle
system.cpu0.commit.committed_per_cycle::mean     0.087135                       # Number of insts commited each cycle
system.cpu0.commit.committed_per_cycle::stdev     0.535520                       # Number of insts commited each cycle
system.cpu0.commit.committed_per_cycle::underflows            0      0.00%      0.00% # Number of insts commited each cycle
system.cpu0.commit.committed_per_cycle::0     28846618     96.14%     96.14% # Number of insts commited each cycle
system.cpu0.commit.committed_per_cycle::1       539090      1.80%     97.93% # Number of insts commited each cycle
system.cpu0.commit.committed_per_cycle::2       130370      0.43%     98.37% # Number of insts commited each cycle
system.cpu0.commit.committed_per_cycle::3       356587      1.19%     99.56% # Number of insts commited each cycle
system.cpu0.commit.committed_per_cycle::4        54481      0.18%     99.74% # Number of insts commited each cycle
system.cpu0.commit.committed_per_cycle::5        30527      0.10%     99.84% # Number of insts commited each cycle
system.cpu0.commit.committed_per_cycle::6         3630      0.01%     99.85% # Number of insts commited each cycle
system.cpu0.commit.committed_per_cycle::7         3343      0.01%     99.86% # Number of insts commited each cycle
system.cpu0.commit.committed_per_cycle::8        41152      0.14%    100.00% # Number of insts commited each cycle
system.cpu0.commit.committed_per_cycle::overflows            0      0.00%    100.00% # Number of insts commited each cycle
system.cpu0.commit.committed_per_cycle::min_value            0                       # Number of insts commited each cycle
system.cpu0.commit.committed_per_cycle::max_value            8                       # Number of insts commited each cycle
system.cpu0.commit.committed_per_cycle::total     30005798                       # Number of insts commited each cycle
system.cpu0.commit.committedInsts             1308226                       # Number of instructions committed
system.cpu0.commit.committedOps               2614547                       # Number of ops (including micro ops) committed
system.cpu0.commit.swp_count                        0                       # Number of s/w prefetches committed
system.cpu0.commit.refs                        525783                       # Number of memory references committed
system.cpu0.commit.loads                       504245                       # Number of loads committed
system.cpu0.commit.membars                          0                       # Number of memory barriers committed
system.cpu0.commit.branches                    480611                       # Number of branches committed
system.cpu0.commit.vec_insts                        0                       # Number of committed Vector instructions.
system.cpu0.commit.fp_insts                      8602                       # Number of committed floating point instructions.
system.cpu0.commit.int_insts                  2605892                       # Number of committed integer instructions.
system.cpu0.commit.function_calls                3800                       # Number of function calls committed.
system.cpu0.commit.op_class_0::No_OpClass         2545      0.10%      0.10% # Class of committed instruction
system.cpu0.commit.op_class_0::IntAlu         2072635     79.27%     79.37% # Class of committed instruction
system.cpu0.commit.op_class_0::IntMult            152      0.01%     79.38% # Class of committed instruction
system.cpu0.commit.op_class_0::IntDiv            6076      0.23%     79.61% # Class of committed instruction
system.cpu0.commit.op_class_0::FloatAdd          7356      0.28%     79.89% # Class of committed instruction
system.cpu0.commit.op_class_0::FloatCmp             0      0.00%     79.89% # Class of committed instruction
system.cpu0.commit.op_class_0::FloatCvt             0      0.00%     79.89% # Class of committed instruction
system.cpu0.commit.op_class_0::FloatMult            0      0.00%     79.89% # Class of committed instruction
system.cpu0.commit.op_class_0::FloatMultAcc            0      0.00%     79.89% # Class of committed instruction
system.cpu0.commit.op_class_0::FloatDiv             0      0.00%     79.89% # Class of committed instruction
system.cpu0.commit.op_class_0::FloatMisc            0      0.00%     79.89% # Class of committed instruction
system.cpu0.commit.op_class_0::FloatSqrt            0      0.00%     79.89% # Class of committed instruction
system.cpu0.commit.op_class_0::SimdAdd              0      0.00%     79.89% # Class of committed instruction
system.cpu0.commit.op_class_0::SimdAddAcc            0      0.00%     79.89% # Class of committed instruction
system.cpu0.commit.op_class_0::SimdAlu              0      0.00%     79.89% # Class of committed instruction
system.cpu0.commit.op_class_0::SimdCmp              0      0.00%     79.89% # Class of committed instruction
system.cpu0.commit.op_class_0::SimdCvt              0      0.00%     79.89% # Class of committed instruction
system.cpu0.commit.op_class_0::SimdMisc             0      0.00%     79.89% # Class of committed instruction
system.cpu0.commit.op_class_0::SimdMult             0      0.00%     79.89% # Class of committed instruction
system.cpu0.commit.op_class_0::SimdMultAcc            0      0.00%     79.89% # Class of committed instruction
system.cpu0.commit.op_class_0::SimdShift            0      0.00%     79.89% # Class of committed instruction
system.cpu0.commit.op_class_0::SimdShiftAcc            0      0.00%     79.89% # Class of committed instruction
system.cpu0.commit.op_class_0::SimdSqrt             0      0.00%     79.89% # Class of committed instruction
system.cpu0.commit.op_class_0::SimdFloatAdd            0      0.00%     79.89% # Class of committed instruction
system.cpu0.commit.op_class_0::SimdFloatAlu            0      0.00%     79.89% # Class of committed instruction
system.cpu0.commit.op_class_0::SimdFloatCmp            0      0.00%     79.89% # Class of committed instruction
system.cpu0.commit.op_class_0::SimdFloatCvt            0      0.00%     79.89% # Class of committed instruction
system.cpu0.commit.op_class_0::SimdFloatDiv            0      0.00%     79.89% # Class of committed instruction
system.cpu0.commit.op_class_0::SimdFloatMisc            0      0.00%     79.89% # Class of committed instruction
system.cpu0.commit.op_class_0::SimdFloatMult            0      0.00%     79.89% # Class of committed instruction
system.cpu0.commit.op_class_0::SimdFloatMultAcc            0      0.00%     79.89% # Class of committed instruction
system.cpu0.commit.op_class_0::SimdFloatSqrt            0      0.00%     79.89% # Class of committed instruction
system.cpu0.commit.op_class_0::MemRead         502999     19.24%     99.13% # Class of committed instruction
system.cpu0.commit.op_class_0::MemWrite         21538      0.82%     99.95% # Class of committed instruction
system.cpu0.commit.op_class_0::FloatMemRead         1246      0.05%    100.00% # Class of committed instruction
system.cpu0.commit.op_class_0::FloatMemWrite            0      0.00%    100.00% # Class of committed instruction
system.cpu0.commit.op_class_0::IprAccess            0      0.00%    100.00% # Class of committed instruction
system.cpu0.commit.op_class_0::InstPrefetch            0      0.00%    100.00% # Class of committed instruction
system.cpu0.commit.op_class_0::total          2614547                       # Class of committed instruction
system.cpu0.commit.bw_lim_events                41152                       # number cycles where commit BW limit reached
system.cpu0.rob.rob_reads                    36320824                       # The number of ROB reads
system.cpu0.rob.rob_writes                   13232580                       # The number of ROB writes
system.cpu0.timesIdled                            104                       # Number of times that the entire CPU went into an idle state and unscheduled itself
system.cpu0.idleCycles                           9727                       # Total number of cycles that the CPU has spent unscheduled due to idling
system.cpu0.committedInsts                    1308226                       # Number of Instructions Simulated
system.cpu0.committedOps                      2614547                       # Number of Ops (including micro ops) Simulated
system.cpu0.cpi                             23.340530                       # CPI: Cycles Per Instruction
system.cpu0.cpi_total                       23.340530                       # CPI: Total CPI of All Threads
system.cpu0.ipc                              0.042844                       # IPC: Instructions Per Cycle
system.cpu0.ipc_total                        0.042844                       # IPC: Total IPC of All Threads
system.cpu0.int_regfile_reads                 4499782                       # number of integer regfile reads
system.cpu0.int_regfile_writes                3841247                       # number of integer regfile writes
system.cpu0.fp_regfile_reads                    21001                       # number of floating regfile reads
system.cpu0.fp_regfile_writes                   10459                       # number of floating regfile writes
system.cpu0.cc_regfile_reads                  3048102                       # number of cc regfile reads
system.cpu0.cc_regfile_writes                 1247310                       # number of cc regfile writes
system.cpu0.misc_regfile_reads                2437898                       # number of misc regfile reads
system.cpu0.dcache.tags.pwrStateResidencyTicks::UNDEFINED  15267344125                       # Cumulative time (in ticks) in various power states
system.cpu0.dcache.tags.replacements           270439                       # number of replacements
system.cpu0.dcache.tags.tagsinuse                1024                       # Cycle average of tags in use
system.cpu0.dcache.tags.total_refs             255337                       # Total number of references to valid blocks.
system.cpu0.dcache.tags.sampled_refs           270439                       # Sample count of references to valid blocks.
system.cpu0.dcache.tags.avg_refs             0.944157                       # Average number of references to valid blocks.
system.cpu0.dcache.tags.warmup_cycle                0                       # Cycle when the warmup percentage was hit.
system.cpu0.dcache.tags.occ_blocks::cpu0.data         1024                       # Average occupied blocks per requestor
system.cpu0.dcache.tags.occ_percent::cpu0.data            1                       # Average percentage of cache occupancy
system.cpu0.dcache.tags.occ_percent::total            1                       # Average percentage of cache occupancy
system.cpu0.dcache.tags.occ_task_id_blocks::1024         1024                       # Occupied blocks per task id
system.cpu0.dcache.tags.age_task_id_blocks_1024::0          120                       # Occupied blocks per task id
system.cpu0.dcache.tags.age_task_id_blocks_1024::1          809                       # Occupied blocks per task id
system.cpu0.dcache.tags.age_task_id_blocks_1024::2           95                       # Occupied blocks per task id
system.cpu0.dcache.tags.occ_task_id_percent::1024            1                       # Percentage of cache occupancy per task id
system.cpu0.dcache.tags.tag_accesses          3163635                       # Number of tag accesses
system.cpu0.dcache.tags.data_accesses         3163635                       # Number of data accesses
system.cpu0.dcache.pwrStateResidencyTicks::UNDEFINED  15267344125                       # Cumulative time (in ticks) in various power states
system.cpu0.dcache.ReadReq_hits::cpu0.data       233817                       # number of ReadReq hits
system.cpu0.dcache.ReadReq_hits::total         233817                       # number of ReadReq hits
system.cpu0.dcache.WriteReq_hits::cpu0.data        20642                       # number of WriteReq hits
system.cpu0.dcache.WriteReq_hits::total         20642                       # number of WriteReq hits
system.cpu0.dcache.demand_hits::cpu0.data       254459                       # number of demand (read+write) hits
system.cpu0.dcache.demand_hits::total          254459                       # number of demand (read+write) hits
system.cpu0.dcache.overall_hits::cpu0.data       254459                       # number of overall hits
system.cpu0.dcache.overall_hits::total         254459                       # number of overall hits
system.cpu0.dcache.ReadReq_misses::cpu0.data       467944                       # number of ReadReq misses
system.cpu0.dcache.ReadReq_misses::total       467944                       # number of ReadReq misses
system.cpu0.dcache.WriteReq_misses::cpu0.data          896                       # number of WriteReq misses
system.cpu0.dcache.WriteReq_misses::total          896                       # number of WriteReq misses
system.cpu0.dcache.demand_misses::cpu0.data       468840                       # number of demand (read+write) misses
system.cpu0.dcache.demand_misses::total        468840                       # number of demand (read+write) misses
system.cpu0.dcache.overall_misses::cpu0.data       468840                       # number of overall misses
system.cpu0.dcache.overall_misses::total       468840                       # number of overall misses
system.cpu0.dcache.ReadReq_miss_latency::cpu0.data  33836024500                       # number of ReadReq miss cycles
system.cpu0.dcache.ReadReq_miss_latency::total  33836024500                       # number of ReadReq miss cycles
system.cpu0.dcache.WriteReq_miss_latency::cpu0.data     31621499                       # number of WriteReq miss cycles
system.cpu0.dcache.WriteReq_miss_latency::total     31621499                       # number of WriteReq miss cycles
system.cpu0.dcache.demand_miss_latency::cpu0.data  33867645999                       # number of demand (read+write) miss cycles
system.cpu0.dcache.demand_miss_latency::total  33867645999                       # number of demand (read+write) miss cycles
system.cpu0.dcache.overall_miss_latency::cpu0.data  33867645999                       # number of overall miss cycles
system.cpu0.dcache.overall_miss_latency::total  33867645999                       # number of overall miss cycles
system.cpu0.dcache.ReadReq_accesses::cpu0.data       701761                       # number of ReadReq accesses(hits+misses)
system.cpu0.dcache.ReadReq_accesses::total       701761                       # number of ReadReq accesses(hits+misses)
system.cpu0.dcache.WriteReq_accesses::cpu0.data        21538                       # number of WriteReq accesses(hits+misses)
system.cpu0.dcache.WriteReq_accesses::total        21538                       # number of WriteReq accesses(hits+misses)
system.cpu0.dcache.demand_accesses::cpu0.data       723299                       # number of demand (read+write) accesses
system.cpu0.dcache.demand_accesses::total       723299                       # number of demand (read+write) accesses
system.cpu0.dcache.overall_accesses::cpu0.data       723299                       # number of overall (read+write) accesses
system.cpu0.dcache.overall_accesses::total       723299                       # number of overall (read+write) accesses
system.cpu0.dcache.ReadReq_miss_rate::cpu0.data     0.666814                       # miss rate for ReadReq accesses
system.cpu0.dcache.ReadReq_miss_rate::total     0.666814                       # miss rate for ReadReq accesses
system.cpu0.dcache.WriteReq_miss_rate::cpu0.data     0.041601                       # miss rate for WriteReq accesses
system.cpu0.dcache.WriteReq_miss_rate::total     0.041601                       # miss rate for WriteReq accesses
system.cpu0.dcache.demand_miss_rate::cpu0.data     0.648197                       # miss rate for demand accesses
system.cpu0.dcache.demand_miss_rate::total     0.648197                       # miss rate for demand accesses
system.cpu0.dcache.overall_miss_rate::cpu0.data     0.648197                       # miss rate for overall accesses
system.cpu0.dcache.overall_miss_rate::total     0.648197                       # miss rate for overall accesses
system.cpu0.dcache.ReadReq_avg_miss_latency::cpu0.data 72307.849871                       # average ReadReq miss latency
system.cpu0.dcache.ReadReq_avg_miss_latency::total 72307.849871                       # average ReadReq miss latency
system.cpu0.dcache.WriteReq_avg_miss_latency::cpu0.data 35291.851562                       # average WriteReq miss latency
system.cpu0.dcache.WriteReq_avg_miss_latency::total 35291.851562                       # average WriteReq miss latency
system.cpu0.dcache.demand_avg_miss_latency::cpu0.data 72237.108606                       # average overall miss latency
[...]
system.l2.ReadSharedReq_hits::cpu0.data         81894                       # number of ReadSharedReq hits
system.l2.ReadSharedReq_hits::total             81894                       # number of ReadSharedReq hits
system.l2.demand_hits::cpu0.data                82579                       # number of demand (read+write) hits
system.l2.demand_hits::total                    82579                       # number of demand (read+write) hits
system.l2.overall_hits::cpu0.data               82579                       # number of overall hits
system.l2.overall_hits::total                   82579                       # number of overall hits
system.l2.ReadExReq_misses::cpu0.data             203                       # number of ReadExReq misses
system.l2.ReadExReq_misses::total                 203                       # number of ReadExReq misses
system.l2.ReadSharedReq_misses::cpu0.data       187656                       # number of ReadSharedReq misses
system.l2.ReadSharedReq_misses::total          187656                       # number of ReadSharedReq misses
system.l2.demand_misses::cpu0.data             187859                       # number of demand (read+write) misses
system.l2.demand_misses::total                 187859                       # number of demand (read+write) misses
system.l2.overall_misses::cpu0.data            187859                       # number of overall misses
system.l2.overall_misses::total                187859                       # number of overall misses
system.l2.ReadExReq_miss_latency::cpu0.data     21402500                       # number of ReadExReq miss cycles
system.l2.ReadExReq_miss_latency::total      21402500                       # number of ReadExReq miss cycles
system.l2.ReadSharedReq_miss_latency::cpu0.data  17875897500                       # number of ReadSharedReq miss cycles
system.l2.ReadSharedReq_miss_latency::total  17875897500                       # number of ReadSharedReq miss cycles
system.l2.demand_miss_latency::cpu0.data  17897300000                       # number of demand (read+write) miss cycles
system.l2.demand_miss_latency::total      17897300000                       # number of demand (read+write) miss cycles
system.l2.overall_miss_latency::cpu0.data  17897300000                       # number of overall miss cycles
system.l2.overall_miss_latency::total     17897300000                       # number of overall miss cycles
system.l2.WritebackDirty_accesses::writebacks         2615                       # number of WritebackDirty accesses(hits+misses)
system.l2.WritebackDirty_accesses::total         2615                       # number of WritebackDirty accesses(hits+misses)
system.l2.ReadExReq_accesses::cpu0.data           888                       # number of ReadExReq accesses(hits+misses)
system.l2.ReadExReq_accesses::total               888                       # number of ReadExReq accesses(hits+misses)
system.l2.ReadSharedReq_accesses::cpu0.data       269550                       # number of ReadSharedReq accesses(hits+misses)
system.l2.ReadSharedReq_accesses::total        269550                       # number of ReadSharedReq accesses(hits+misses)
system.l2.demand_accesses::cpu0.data           270438                       # number of demand (read+write) accesses
system.l2.demand_accesses::total               270438                       # number of demand (read+write) accesses
system.l2.overall_accesses::cpu0.data          270438                       # number of overall (read+write) accesses
system.l2.overall_accesses::total              270438                       # number of overall (read+write) accesses
system.l2.ReadExReq_miss_rate::cpu0.data     0.228604                       # miss rate for ReadExReq accesses
system.l2.ReadExReq_miss_rate::total         0.228604                       # miss rate for ReadExReq accesses
system.l2.ReadSharedReq_miss_rate::cpu0.data     0.696183                       # miss rate for ReadSharedReq accesses
system.l2.ReadSharedReq_miss_rate::total     0.696183                       # miss rate for ReadSharedReq accesses
system.l2.demand_miss_rate::cpu0.data        0.694647                       # miss rate for demand accesses
system.l2.demand_miss_rate::total            0.694647                       # miss rate for demand accesses
system.l2.overall_miss_rate::cpu0.data       0.694647                       # miss rate for overall accesses
system.l2.overall_miss_rate::total           0.694647                       # miss rate for overall accesses
system.l2.ReadExReq_avg_miss_latency::cpu0.data 105431.034483                       # average ReadExReq miss latency
system.l2.ReadExReq_avg_miss_latency::total 105431.034483                       # average ReadExReq miss latency
system.l2.ReadSharedReq_avg_miss_latency::cpu0.data 95258.864625                       # average ReadSharedReq miss latency
system.l2.ReadSharedReq_avg_miss_latency::total 95258.864625                       # average ReadSharedReq miss latency
system.l2.demand_avg_miss_latency::cpu0.data 95269.856648                       # average overall miss latency
system.l2.demand_avg_miss_latency::total 95269.856648                       # average overall miss latency
system.l2.overall_avg_miss_latency::cpu0.data 95269.856648                       # average overall miss latency
system.l2.overall_avg_miss_latency::total 95269.856648                       # average overall miss latency
system.l2.blocked_cycles::no_mshrs                  0                       # number of cycles access was blocked
system.l2.blocked_cycles::no_targets                0                       # number of cycles access was blocked
system.l2.blocked::no_mshrs                         0                       # number of cycles access was blocked
system.l2.blocked::no_targets                       0                       # number of cycles access was blocked
system.l2.avg_blocked_cycles::no_mshrs            nan                       # average number of cycles each access was blocked
system.l2.avg_blocked_cycles::no_targets          nan                       # average number of cycles each access was blocked
system.l2.writebacks::writebacks                  309                       # number of writebacks
system.l2.writebacks::total                       309                       # number of writebacks
system.l2.ReadExReq_mshr_misses::cpu0.data          203                       # number of ReadExReq MSHR misses
system.l2.ReadExReq_mshr_misses::total            203                       # number of ReadExReq MSHR misses
system.l2.ReadSharedReq_mshr_misses::cpu0.data       187656                       # number of ReadSharedReq MSHR misses
system.l2.ReadSharedReq_mshr_misses::total       187656                       # number of ReadSharedReq MSHR misses
system.l2.demand_mshr_misses::cpu0.data        187859                       # number of demand (read+write) MSHR misses
system.l2.demand_mshr_misses::total            187859                       # number of demand (read+write) MSHR misses
system.l2.overall_mshr_misses::cpu0.data       187859                       # number of overall MSHR misses
system.l2.overall_mshr_misses::total           187859                       # number of overall MSHR misses
system.l2.ReadExReq_mshr_miss_latency::cpu0.data     19372500                       # number of ReadExReq MSHR miss cycles
system.l2.ReadExReq_mshr_miss_latency::total     19372500                       # number of ReadExReq MSHR miss cycles
system.l2.ReadSharedReq_mshr_miss_latency::cpu0.data  15999327500                       # number of ReadSharedReq MSHR miss cycles
system.l2.ReadSharedReq_mshr_miss_latency::total  15999327500                       # number of ReadSharedReq MSHR miss cycles
system.l2.demand_mshr_miss_latency::cpu0.data  16018700000                       # number of demand (read+write) MSHR miss cycles
system.l2.demand_mshr_miss_latency::total  16018700000                       # number of demand (read+write) MSHR miss cycles
system.l2.overall_mshr_miss_latency::cpu0.data  16018700000                       # number of overall MSHR miss cycles
system.l2.overall_mshr_miss_latency::total  16018700000                       # number of overall MSHR miss cycles
system.l2.ReadExReq_mshr_miss_rate::cpu0.data     0.228604                       # mshr miss rate for ReadExReq accesses
system.l2.ReadExReq_mshr_miss_rate::total     0.228604                       # mshr miss rate for ReadExReq accesses
system.l2.ReadSharedReq_mshr_miss_rate::cpu0.data     0.696183                       # mshr miss rate for ReadSharedReq accesses
system.l2.ReadSharedReq_mshr_miss_rate::total     0.696183                       # mshr miss rate for ReadSharedReq accesses
system.l2.demand_mshr_miss_rate::cpu0.data     0.694647                       # mshr miss rate for demand accesses
system.l2.demand_mshr_miss_rate::total       0.694647                       # mshr miss rate for demand accesses
system.l2.overall_mshr_miss_rate::cpu0.data     0.694647                       # mshr miss rate for overall accesses
system.l2.overall_mshr_miss_rate::total      0.694647                       # mshr miss rate for overall accesses
system.l2.ReadExReq_avg_mshr_miss_latency::cpu0.data 95431.034483                       # average ReadExReq mshr miss latency
system.l2.ReadExReq_avg_mshr_miss_latency::total 95431.034483                       # average ReadExReq mshr miss latency
system.l2.ReadSharedReq_avg_mshr_miss_latency::cpu0.data 85258.811336                       # average ReadSharedReq mshr miss latency
system.l2.ReadSharedReq_avg_mshr_miss_latency::total 85258.811336                       # average ReadSharedReq mshr miss latency
system.l2.demand_avg_mshr_miss_latency::cpu0.data 85269.803416                       # average overall mshr miss latency
system.l2.demand_avg_mshr_miss_latency::total 85269.803416                       # average overall mshr miss latency
system.l2.overall_avg_mshr_miss_latency::cpu0.data 85269.803416                       # average overall mshr miss latency
system.l2.overall_avg_mshr_miss_latency::total 85269.803416                       # average overall mshr miss latency
system.membus.snoop_filter.tot_requests        375717                       # Total number of requests made to the snoop filter.
system.membus.snoop_filter.hit_single_requests       187860                       # Number of requests hitting in the snoop filter with a single holder of the requested data.
system.membus.snoop_filter.hit_multi_requests            0                       # Number of requests hitting in the snoop filter with multiple (>1) holders of the requested data.
system.membus.snoop_filter.tot_snoops               0                       # Total number of snoops made to the snoop filter.
system.membus.snoop_filter.hit_single_snoops            0                       # Number of snoops hitting in the snoop filter with a single holder of the requested data.
system.membus.snoop_filter.hit_multi_snoops            0                       # Number of snoops hitting in the snoop filter with multiple (>1) holders of the requested data.
system.membus.pwrStateResidencyTicks::UNDEFINED  15267344125                       # Cumulative time (in ticks) in various power states
system.membus.trans_dist::ReadResp             187657                       # Transaction distribution
system.membus.trans_dist::WritebackDirty          309                       # Transaction distribution
system.membus.trans_dist::CleanEvict           187550                       # Transaction distribution
system.membus.trans_dist::ReadExReq               203                       # Transaction distribution
system.membus.trans_dist::ReadExResp              203                       # Transaction distribution
system.membus.trans_dist::ReadSharedReq        187655                       # Transaction distribution
system.membus.pkt_count_system.l2.mem_side::system.mem_ctrls.port       563577                       # Packet count per connected master and slave (bytes)
system.membus.pkt_count_system.l2.mem_side::total       563577                       # Packet count per connected master and slave (bytes)
system.membus.pkt_count::total                 563577                       # Packet count per connected master and slave (bytes)
system.membus.pkt_size_system.l2.mem_side::system.mem_ctrls.port     12042816                       # Cumulative packet size per connected master and slave (bytes)
system.membus.pkt_size_system.l2.mem_side::total     12042816                       # Cumulative packet size per connected master and slave (bytes)
system.membus.pkt_size::total                12042816                       # Cumulative packet size per connected master and slave (bytes)
system.membus.snoops                                0                       # Total snoops (count)
system.membus.snoopTraffic                          0                       # Total snoop traffic (bytes)
system.membus.snoop_fanout::samples            187858                       # Request fanout histogram
system.membus.snoop_fanout::mean                    0                       # Request fanout histogram
system.membus.snoop_fanout::stdev                   0                       # Request fanout histogram
system.membus.snoop_fanout::underflows              0      0.00%      0.00% # Request fanout histogram
system.membus.snoop_fanout::0                  187858    100.00%    100.00% # Request fanout histogram
system.membus.snoop_fanout::1                       0      0.00%    100.00% # Request fanout histogram
system.membus.snoop_fanout::overflows               0      0.00%    100.00% # Request fanout histogram
system.membus.snoop_fanout::min_value               0                       # Request fanout histogram
system.membus.snoop_fanout::max_value               0                       # Request fanout histogram
system.membus.snoop_fanout::total              187858                       # Request fanout histogram
system.membus.reqLayer8.occupancy           443317000                       # Layer occupancy (ticks)
system.membus.reqLayer8.utilization               2.9                       # Layer utilization (%)
system.membus.respLayer1.occupancy         1016839500                       # Layer occupancy (ticks)
system.membus.respLayer1.utilization              6.7                       # Layer utilization (%)
system.tol2bus.snoop_filter.tot_requests       540877                       # Total number of requests made to the snoop filter.
system.tol2bus.snoop_filter.hit_single_requests       270442                       # Number of requests hitting in the snoop filter with a single holder of the requested data.
system.tol2bus.snoop_filter.hit_multi_requests          655                       # Number of requests hitting in the snoop filter with multiple (>1) holders of the requested data.
system.tol2bus.snoop_filter.tot_snoops              1                       # Total number of snoops made to the snoop filter.
system.tol2bus.snoop_filter.hit_single_snoops            1                       # Number of snoops hitting in the snoop filter with a single holder of the requested data.
system.tol2bus.snoop_filter.hit_multi_snoops            0                       # Number of snoops hitting in the snoop filter with multiple (>1) holders of the requested data.
system.tol2bus.pwrStateResidencyTicks::UNDEFINED  15267344125                       # Cumulative time (in ticks) in various power states
system.tol2bus.trans_dist::ReadResp            269551                       # Transaction distribution
system.tol2bus.trans_dist::WritebackDirty         2924                       # Transaction distribution
system.tol2bus.trans_dist::CleanEvict          455375                       # Transaction distribution
system.tol2bus.trans_dist::ReadExReq              888                       # Transaction distribution
system.tol2bus.trans_dist::ReadExResp             888                       # Transaction distribution
system.tol2bus.trans_dist::ReadSharedReq       269550                       # Transaction distribution
system.tol2bus.pkt_count_system.cpu0.dcache.mem_side::system.l2.cpu_side       811316                       # Packet count per connected master and slave (bytes)
system.tol2bus.pkt_count::total                811316                       # Packet count per connected master and slave (bytes)
system.tol2bus.pkt_size_system.cpu0.dcache.mem_side::system.l2.cpu_side     17475456                       # Cumulative packet size per connected master and slave (bytes)
system.tol2bus.pkt_size::total               17475456                       # Cumulative packet size per connected master and slave (bytes)
system.tol2bus.snoops                          187860                       # Total snoops (count)
system.tol2bus.snoopTraffic                     19776                       # Total snoop traffic (bytes)
system.tol2bus.snoop_fanout::samples           458298                       # Request fanout histogram
system.tol2bus.snoop_fanout::mean            0.001438                       # Request fanout histogram
system.tol2bus.snoop_fanout::stdev           0.037893                       # Request fanout histogram
system.tol2bus.snoop_fanout::underflows             0      0.00%      0.00% # Request fanout histogram
system.tol2bus.snoop_fanout::0                 457639     99.86%     99.86% # Request fanout histogram
system.tol2bus.snoop_fanout::1                    659      0.14%    100.00% # Request fanout histogram
system.tol2bus.snoop_fanout::2                      0      0.00%    100.00% # Request fanout histogram
system.tol2bus.snoop_fanout::3                      0      0.00%    100.00% # Request fanout histogram
system.tol2bus.snoop_fanout::4                      0      0.00%    100.00% # Request fanout histogram
system.tol2bus.snoop_fanout::5                      0      0.00%    100.00% # Request fanout histogram
system.tol2bus.snoop_fanout::6                      0      0.00%    100.00% # Request fanout histogram
system.tol2bus.snoop_fanout::7                      0      0.00%    100.00% # Request fanout histogram
system.tol2bus.snoop_fanout::8                      0      0.00%    100.00% # Request fanout histogram
system.tol2bus.snoop_fanout::9                      0      0.00%    100.00% # Request fanout histogram
system.tol2bus.snoop_fanout::10                     0      0.00%    100.00% # Request fanout histogram
system.tol2bus.snoop_fanout::11                     0      0.00%    100.00% # Request fanout histogram
system.tol2bus.snoop_fanout::12                     0      0.00%    100.00% # Request fanout histogram
system.tol2bus.snoop_fanout::13                     0      0.00%    100.00% # Request fanout histogram
system.tol2bus.snoop_fanout::14                     0      0.00%    100.00% # Request fanout histogram
system.tol2bus.snoop_fanout::15                     0      0.00%    100.00% # Request fanout histogram
system.tol2bus.snoop_fanout::16                     0      0.00%    100.00% # Request fanout histogram
system.tol2bus.snoop_fanout::overflows              0      0.00%    100.00% # Request fanout histogram
system.tol2bus.snoop_fanout::min_value              0                       # Request fanout histogram
system.tol2bus.snoop_fanout::max_value              1                       # Request fanout histogram
system.tol2bus.snoop_fanout::total             458298                       # Request fanout histogram
system.tol2bus.reqLayer0.occupancy          273053500                       # Layer occupancy (ticks)
system.tol2bus.reqLayer0.utilization              1.8                       # Layer utilization (%)
system.tol2bus.respLayer1.occupancy         405658500                       # Layer occupancy (ticks)
system.tol2bus.respLayer1.utilization             2.7                       # Layer utilization (%)

---------- End Simulation Statistics   ----------
