
---------- Begin Simulation Statistics ----------
sim_seconds                                  0.015267                       # Number of seconds simulated
sim_ticks                                 15267344125                       # Number of ticks simulated
final_tick                               1786279262625                       # Number of ticks from beginning of simulation (restored from checkpoints and never reset)
sim_freq                                 1000000000000                       # Frequency of simulated ticks
host_inst_rate                               11003765                       # Simulator instruction rate (inst/s)
host_op_rate                                 20002494                       # Simulator op (including micro ops) rate (op/s)
host_tick_rate                               41758850                       # Simulator tick rate (ticks/s)
host_mem_usage                                2332528                       # Number of bytes of host memory used
host_seconds                                   365.61                       # Real time elapsed on the host
sim_insts                                  4023057505                       # Number of instructions simulated
sim_ops                                    7313059309                       # Number of ops (including micro ops) simulated
system.voltage_domain.voltage                       1                       # Voltage in Volts
system.clk_domain.clock                          1000                       # Clock period in ticks
system.mem_ctrls.pwrStateResidencyTicks::UNDEFINED  15267344125                       # Cumulative time (in ticks) in various power states
system.mem_ctrls.bytes_read::cpu0.inst             64                       # Number of bytes read from this memory
system.mem_ctrls.bytes_read::cpu0.data         914944                       # Number of bytes read from this memory
system.mem_ctrls.bytes_read::total             915008                       # Number of bytes read from this memory
system.mem_ctrls.bytes_inst_read::cpu0.inst           64                       # Number of instructions bytes read from this memory
system.mem_ctrls.bytes_inst_read::total            64                       # Number of instructions bytes read from this memory
system.mem_ctrls.bytes_written::writebacks       848064                       # Number of bytes written to this memory
system.mem_ctrls.bytes_written::total          848064                       # Number of bytes written to this memory
system.mem_ctrls.num_reads::cpu0.inst               1                       # Number of read requests responded to by this memory
system.mem_ctrls.num_reads::cpu0.data           14296                       # Number of read requests responded to by this memory
system.mem_ctrls.num_reads::total               14297                       # Number of read requests responded to by this memory
system.mem_ctrls.num_writes::writebacks         13251                       # Number of write requests responded to by this memory
system.mem_ctrls.num_writes::total              13251                       # Number of write requests responded to by this memory
system.mem_ctrls.bw_read::cpu0.inst              4192                       # Total read bandwidth from this memory (bytes/s)
system.mem_ctrls.bw_read::cpu0.data          59928170                       # Total read bandwidth from this memory (bytes/s)
system.mem_ctrls.bw_read::total              59932362                       # Total read bandwidth from this memory (bytes/s)
system.mem_ctrls.bw_inst_read::cpu0.inst         4192                       # Instruction read bandwidth from this memory (bytes/s)
system.mem_ctrls.bw_inst_read::total             4192                       # Instruction read bandwidth from this memory (bytes/s)
system.mem_ctrls.bw_write::writebacks        55547579                       # Write bandwidth from this memory (bytes/s)
system.mem_ctrls.bw_write::total             55547579                       # Write bandwidth from this memory (bytes/s)
system.mem_ctrls.bw_total::writebacks        55547579                       # Total bandwidth to/from this memory (bytes/s)
system.mem_ctrls.bw_total::cpu0.inst             4192                       # Total bandwidth to/from this memory (bytes/s)
system.mem_ctrls.bw_total::cpu0.data         59928170                       # Total bandwidth to/from this memory (bytes/s)
system.mem_ctrls.bw_total::total            115479941                       # Total bandwidth to/from this memory (bytes/s)
system.mem_ctrls.readReqs                       14298                       # Number of read requests accepted
system.mem_ctrls.writeReqs                      13251                       # Number of write requests accepted
system.mem_ctrls.readBursts                     14298                       # Number of DRAM read bursts, including those serviced by the write queue
system.mem_ctrls.writeBursts                    13251                       # Number of DRAM write bursts, including those merged in the write queue
system.mem_ctrls.bytesReadDRAM                 915008                       # Total number of bytes read from DRAM
system.mem_ctrls.bytesReadWrQ                       0                       # Total number of bytes read from write queue
system.mem_ctrls.bytesWritten                  847616                       # Total number of bytes written to DRAM
system.mem_ctrls.bytesReadSys                  915072                       # Total read bytes from the system interface side
system.mem_ctrls.bytesWrittenSys               848064                       # Total written bytes from the system interface side
system.mem_ctrls.servicedByWrQ                      0                       # Number of DRAM read bursts serviced by the write queue
system.mem_ctrls.mergedWrBursts                     0                       # Number of DRAM write bursts merged with an existing one
system.mem_ctrls.neitherReadNorWriteReqs            0                       # Number of requests that are neither read nor write
system.mem_ctrls.perBankRdBursts::0              1024                       # Per bank write bursts
system.mem_ctrls.perBankRdBursts::1              1024                       # Per bank write bursts
system.mem_ctrls.perBankRdBursts::2              1024                       # Per bank write bursts
system.mem_ctrls.perBankRdBursts::3               986                       # Per bank write bursts
system.mem_ctrls.perBankRdBursts::4               791                       # Per bank write bursts
system.mem_ctrls.perBankRdBursts::5               770                       # Per bank write bursts
system.mem_ctrls.perBankRdBursts::6               896                       # Per bank write bursts
system.mem_ctrls.perBankRdBursts::7               897                       # Per bank write bursts
system.mem_ctrls.perBankRdBursts::8               874                       # Per bank write bursts
system.mem_ctrls.perBankRdBursts::9               791                       # Per bank write bursts
system.mem_ctrls.perBankRdBursts::10              791                       # Per bank write bursts
system.mem_ctrls.perBankRdBursts::11              768                       # Per bank write bursts
system.mem_ctrls.perBankRdBursts::12              768                       # Per bank write bursts
system.mem_ctrls.perBankRdBursts::13              857                       # Per bank write bursts
system.mem_ctrls.perBankRdBursts::14              989                       # Per bank write bursts
system.mem_ctrls.perBankRdBursts::15             1047                       # Per bank write bursts
system.mem_ctrls.perBankWrBursts::0               896                       # Per bank write bursts
system.mem_ctrls.perBankWrBursts::1               896                       # Per bank write bursts
system.mem_ctrls.perBankWrBursts::2              1012                       # Per bank write bursts
system.mem_ctrls.perBankWrBursts::3               955                       # Per bank write bursts
system.mem_ctrls.perBankWrBursts::4               771                       # Per bank write bursts
system.mem_ctrls.perBankWrBursts::5               775                       # Per bank write bursts
system.mem_ctrls.perBankWrBursts::6               896                       # Per bank write bursts
system.mem_ctrls.perBankWrBursts::7               897                       # Per bank write bursts
system.mem_ctrls.perBankWrBursts::8               874                       # Per bank write bursts
system.mem_ctrls.perBankWrBursts::9               778                       # Per bank write bursts
system.mem_ctrls.perBankWrBursts::10              714                       # Per bank write bursts
system.mem_ctrls.perBankWrBursts::11              640                       # Per bank write bursts
system.mem_ctrls.perBankWrBursts::12              640                       # Per bank write bursts
system.mem_ctrls.perBankWrBursts::13              748                       # Per bank write bursts
system.mem_ctrls.perBankWrBursts::14              861                       # Per bank write bursts
system.mem_ctrls.perBankWrBursts::15              891                       # Per bank write bursts
system.mem_ctrls.numRdRetry                         0                       # Number of times read queue was full causing retry
system.mem_ctrls.numWrRetry                         0                       # Number of times write queue was full causing retry
system.mem_ctrls.totGap                   15267744500                       # Total gap between requests
system.mem_ctrls.readPktSize::0                     0                       # Read request sizes (log2)
system.mem_ctrls.readPktSize::1                     0                       # Read request sizes (log2)
system.mem_ctrls.readPktSize::2                     0                       # Read request sizes (log2)
system.mem_ctrls.readPktSize::3                     0                       # Read request sizes (log2)
system.mem_ctrls.readPktSize::4                     0                       # Read request sizes (log2)
system.mem_ctrls.readPktSize::5                     0                       # Read request sizes (log2)
system.mem_ctrls.readPktSize::6                 14298                       # Read request sizes (log2)
system.mem_ctrls.writePktSize::0                    0                       # Write request sizes (log2)
system.mem_ctrls.writePktSize::1                    0                       # Write request sizes (log2)
system.mem_ctrls.writePktSize::2                    0                       # Write request sizes (log2)
system.mem_ctrls.writePktSize::3                    0                       # Write request sizes (log2)
system.mem_ctrls.writePktSize::4                    0                       # Write request sizes (log2)
system.mem_ctrls.writePktSize::5                    0                       # Write request sizes (log2)
system.mem_ctrls.writePktSize::6                13251                       # Write request sizes (log2)
system.mem_ctrls.rdQLenPdf::0                   14298                       # What read queue length does an incoming req see
system.mem_ctrls.rdQLenPdf::1                       0                       # What read queue length does an incoming req see
system.mem_ctrls.rdQLenPdf::2                       0                       # What read queue length does an incoming req see
system.mem_ctrls.rdQLenPdf::3                       0                       # What read queue length does an incoming req see
system.mem_ctrls.rdQLenPdf::4                       0                       # What read queue length does an incoming req see
system.mem_ctrls.rdQLenPdf::5                       0                       # What read queue length does an incoming req see
system.mem_ctrls.rdQLenPdf::6                       0                       # What read queue length does an incoming req see
system.mem_ctrls.rdQLenPdf::7                       0                       # What read queue length does an incoming req see
system.mem_ctrls.rdQLenPdf::8                       0                       # What read queue length does an incoming req see
system.mem_ctrls.rdQLenPdf::9                       0                       # What read queue length does an incoming req see
system.mem_ctrls.rdQLenPdf::10                      0                       # What read queue length does an incoming req see
system.mem_ctrls.rdQLenPdf::11                      0                       # What read queue length does an incoming req see
system.mem_ctrls.rdQLenPdf::12                      0                       # What read queue length does an incoming req see
system.mem_ctrls.rdQLenPdf::13                      0                       # What read queue length does an incoming req see
system.mem_ctrls.rdQLenPdf::14                      0                       # What read queue length does an incoming req see
system.mem_ctrls.rdQLenPdf::15                      0                       # What read queue length does an incoming req see
system.mem_ctrls.rdQLenPdf::16                      0                       # What read queue length does an incoming req see
system.mem_ctrls.rdQLenPdf::17                      0                       # What read queue length does an incoming req see
system.mem_ctrls.rdQLenPdf::18                      0                       # What read queue length does an incoming req see
system.mem_ctrls.rdQLenPdf::19                      0                       # What read queue length does an incoming req see
system.mem_ctrls.rdQLenPdf::20                      0                       # What read queue length does an incoming req see
system.mem_ctrls.rdQLenPdf::21                      0                       # What read queue length does an incoming req see
system.mem_ctrls.rdQLenPdf::22                      0                       # What read queue length does an incoming req see
system.mem_ctrls.rdQLenPdf::23                      0                       # What read queue length does an incoming req see
system.mem_ctrls.rdQLenPdf::24                      0                       # What read queue length does an incoming req see
system.mem_ctrls.rdQLenPdf::25                      0                       # What read queue length does an incoming req see
system.mem_ctrls.rdQLenPdf::26                      0                       # What read queue length does an incoming req see
system.mem_ctrls.rdQLenPdf::27                      0                       # What read queue length does an incoming req see
system.mem_ctrls.rdQLenPdf::28                      0                       # What read queue length does an incoming req see
system.mem_ctrls.rdQLenPdf::29                      0                       # What read queue length does an incoming req see
system.mem_ctrls.rdQLenPdf::30                      0                       # What read queue length does an incoming req see
system.mem_ctrls.rdQLenPdf::31                      0                       # What read queue length does an incoming req see
system.mem_ctrls.wrQLenPdf::0                       0                       # What write queue length does an incoming req see
system.mem_ctrls.wrQLenPdf::1                       0                       # What write queue length does an incoming req see
system.mem_ctrls.wrQLenPdf::2                       0                       # What write queue length does an incoming req see
system.mem_ctrls.wrQLenPdf::3                       0                       # What write queue length does an incoming req see
system.mem_ctrls.wrQLenPdf::4                       0                       # What write queue length does an incoming req see
system.mem_ctrls.wrQLenPdf::5                       0                       # What write queue length does an incoming req see
system.mem_ctrls.wrQLenPdf::6                       0                       # What write queue length does an incoming req see
system.mem_ctrls.wrQLenPdf::7                       0                       # What write queue length does an incoming req see
system.mem_ctrls.wrQLenPdf::8                       0                       # What write queue length does an incoming req see
system.mem_ctrls.wrQLenPdf::9                       0                       # What write queue length does an incoming req see
system.mem_ctrls.wrQLenPdf::10                      0                       # What write queue length does an incoming req see
system.mem_ctrls.wrQLenPdf::11                      0                       # What write queue length does an incoming req see
system.mem_ctrls.wrQLenPdf::12                      0                       # What write queue length does an incoming req see
system.mem_ctrls.wrQLenPdf::13                      0                       # What write queue length does an incoming req see
system.mem_ctrls.wrQLenPdf::14                      0                       # What write queue length does an incoming req see
system.mem_ctrls.wrQLenPdf::15                    717                       # What write queue length does an incoming req see
system.mem_ctrls.wrQLenPdf::16                    719                       # What write queue length does an incoming req see
system.mem_ctrls.wrQLenPdf::17                    738                       # What write queue length does an incoming req see
system.mem_ctrls.wrQLenPdf::18                    738                       # What write queue length does an incoming req see
system.mem_ctrls.wrQLenPdf::19                    738                       # What write queue length does an incoming req see
system.mem_ctrls.wrQLenPdf::20                    738                       # What write queue length does an incoming req see
system.mem_ctrls.wrQLenPdf::21                    738                       # What write queue length does an incoming req see
system.mem_ctrls.wrQLenPdf::22                    738                       # What write queue length does an incoming req see
system.mem_ctrls.wrQLenPdf::23                    739                       # What write queue length does an incoming req see
system.mem_ctrls.wrQLenPdf::24                    739                       # What write queue length does an incoming req see
system.mem_ctrls.wrQLenPdf::25                    739                       # What write queue length does an incoming req see
system.mem_ctrls.wrQLenPdf::26                    739                       # What write queue length does an incoming req see
system.mem_ctrls.wrQLenPdf::27                    739                       # What write queue length does an incoming req see
system.mem_ctrls.wrQLenPdf::28                    739                       # What write queue length does an incoming req see
system.mem_ctrls.wrQLenPdf::29                    739                       # What write queue length does an incoming req see
system.mem_ctrls.wrQLenPdf::30                    738                       # What write queue length does an incoming req see
system.mem_ctrls.wrQLenPdf::31                    738                       # What write queue length does an incoming req see
system.mem_ctrls.wrQLenPdf::32                    738                       # What write queue length does an incoming req see
system.mem_ctrls.wrQLenPdf::33                      0                       # What write queue length does an incoming req see
system.mem_ctrls.wrQLenPdf::34                      0                       # What write queue length does an incoming req see
system.mem_ctrls.wrQLenPdf::35                      0                       # What write queue length does an incoming req see
system.mem_ctrls.wrQLenPdf::36                      0                       # What write queue length does an incoming req see
system.mem_ctrls.wrQLenPdf::37                      0                       # What write queue length does an incoming req see
system.mem_ctrls.wrQLenPdf::38                      0                       # What write queue length does an incoming req see
system.mem_ctrls.wrQLenPdf::39                      0                       # What write queue length does an incoming req see
system.mem_ctrls.wrQLenPdf::40                      0                       # What write queue length does an incoming req see
system.mem_ctrls.wrQLenPdf::41                      0                       # What write queue length does an incoming req see
system.mem_ctrls.wrQLenPdf::42                      0                       # What write queue length does an incoming req see
system.mem_ctrls.wrQLenPdf::43                      0                       # What write queue length does an incoming req see
system.mem_ctrls.wrQLenPdf::44                      0                       # What write queue length does an incoming req see
system.mem_ctrls.wrQLenPdf::45                      0                       # What write queue length does an incoming req see
system.mem_ctrls.wrQLenPdf::46                      0                       # What write queue length does an incoming req see
system.mem_ctrls.wrQLenPdf::47                      0                       # What write queue length does an incoming req see
system.mem_ctrls.wrQLenPdf::48                      0                       # What write queue length does an incoming req see
system.mem_ctrls.wrQLenPdf::49                      0                       # What write queue length does an incoming req see
system.mem_ctrls.wrQLenPdf::50                      0                       # What write queue length does an incoming req see
system.mem_ctrls.wrQLenPdf::51                      0                       # What write queue length does an incoming req see
system.mem_ctrls.wrQLenPdf::52                      0                       # What write queue length does an incoming req see
system.mem_ctrls.wrQLenPdf::53                      0                       # What write queue length does an incoming req see
system.mem_ctrls.wrQLenPdf::54                      0                       # What write queue length does an incoming req see
system.mem_ctrls.wrQLenPdf::55                      0                       # What write queue length does an incoming req see
system.mem_ctrls.wrQLenPdf::56                      0                       # What write queue length does an incoming req see
system.mem_ctrls.wrQLenPdf::57                      0                       # What write queue length does an incoming req see
system.mem_ctrls.wrQLenPdf::58                      0                       # What write queue length does an incoming req see
system.mem_ctrls.wrQLenPdf::59                      0                       # What write queue length does an incoming req see
system.mem_ctrls.wrQLenPdf::60                      0                       # What write queue length does an incoming req see
system.mem_ctrls.wrQLenPdf::61                      0                       # What write queue length does an incoming req see
system.mem_ctrls.wrQLenPdf::62                      0                       # What write queue length does an incoming req see
system.mem_ctrls.wrQLenPdf::63                      0                       # What write queue length does an incoming req see
system.mem_ctrls.bytesPerActivate::samples         5970                       # Bytes accessed per row activation
system.mem_ctrls.bytesPerActivate::mean    295.257621                       # Bytes accessed per row activation
system.mem_ctrls.bytesPerActivate::gmean   182.800391                       # Bytes accessed per row activation
system.mem_ctrls.bytesPerActivate::stdev   291.316041                       # Bytes accessed per row activation
system.mem_ctrls.bytesPerActivate::0-127         2405     40.28%     40.28% # Bytes accessed per row activation
system.mem_ctrls.bytesPerActivate::128-255          794     13.30%     53.58% # Bytes accessed per row activation
system.mem_ctrls.bytesPerActivate::256-383          566      9.48%     63.07% # Bytes accessed per row activation
system.mem_ctrls.bytesPerActivate::384-511         1454     24.36%     87.42% # Bytes accessed per row activation
system.mem_ctrls.bytesPerActivate::512-639           43      0.72%     88.14% # Bytes accessed per row activation
system.mem_ctrls.bytesPerActivate::640-767           39      0.65%     88.79% # Bytes accessed per row activation
system.mem_ctrls.bytesPerActivate::768-895           66      1.11%     89.90% # Bytes accessed per row activation
system.mem_ctrls.bytesPerActivate::896-1023           89      1.49%     91.39% # Bytes accessed per row activation
system.mem_ctrls.bytesPerActivate::1024-1151          514      8.61%    100.00% # Bytes accessed per row activation
system.mem_ctrls.bytesPerActivate::total         5970                       # Bytes accessed per row activation
system.mem_ctrls.rdPerTurnAround::samples          738                       # Reads before turning the bus around for writes
system.mem_ctrls.rdPerTurnAround::mean      19.363144                       # Reads before turning the bus around for writes
system.mem_ctrls.rdPerTurnAround::gmean     18.465076                       # Reads before turning the bus around for writes
system.mem_ctrls.rdPerTurnAround::stdev     12.720920                       # Reads before turning the bus around for writes
system.mem_ctrls.rdPerTurnAround::16-23           717     97.15%     97.15% # Reads before turning the bus around for writes
system.mem_ctrls.rdPerTurnAround::24-31            11      1.49%     98.64% # Reads before turning the bus around for writes
system.mem_ctrls.rdPerTurnAround::32-39             1      0.14%     98.78% # Reads before turning the bus around for writes
system.mem_ctrls.rdPerTurnAround::56-63             1      0.14%     98.92% # Reads before turning the bus around for writes
system.mem_ctrls.rdPerTurnAround::64-71             1      0.14%     99.05% # Reads before turning the bus around for writes
system.mem_ctrls.rdPerTurnAround::88-95             1      0.14%     99.19% # Reads before turning the bus around for writes
system.mem_ctrls.rdPerTurnAround::96-103            1      0.14%     99.32% # Reads before turning the bus around for writes
system.mem_ctrls.rdPerTurnAround::112-119            1      0.14%     99.46% # Reads before turning the bus around for writes
system.mem_ctrls.rdPerTurnAround::128-135            1      0.14%     99.59% # Reads before turning the bus around for writes
system.mem_ctrls.rdPerTurnAround::152-159            1      0.14%     99.73% # Reads before turning the bus around for writes
system.mem_ctrls.rdPerTurnAround::184-191            1      0.14%     99.86% # Reads before turning the bus around for writes
system.mem_ctrls.rdPerTurnAround::200-207            1      0.14%    100.00% # Reads before turning the bus around for writes
system.mem_ctrls.rdPerTurnAround::total           738                       # Reads before turning the bus around for writes
system.mem_ctrls.wrPerTurnAround::samples          738                       # Writes before turning the bus around for reads
system.mem_ctrls.wrPerTurnAround::mean      17.945799                       # Writes before turning the bus around for reads
system.mem_ctrls.wrPerTurnAround::gmean     17.942721                       # Writes before turning the bus around for reads
system.mem_ctrls.wrPerTurnAround::stdev      0.320769                       # Writes before turning the bus around for reads
system.mem_ctrls.wrPerTurnAround::16               19      2.57%      2.57% # Writes before turning the bus around for reads
system.mem_ctrls.wrPerTurnAround::17                2      0.27%      2.85% # Writes before turning the bus around for reads
system.mem_ctrls.wrPerTurnAround::18              717     97.15%    100.00% # Writes before turning the bus around for reads
system.mem_ctrls.wrPerTurnAround::total           738                       # Writes before turning the bus around for reads
system.mem_ctrls.totQLat                    364784000                       # Total ticks spent queuing
system.mem_ctrls.totMemAccLat               632852750                       # Total ticks spent from burst creation until serviced by the DRAM
system.mem_ctrls.totBusLat                   71485000                       # Total ticks spent in databus transfers
system.mem_ctrls.avgQLat                     25512.94                       # Average queueing delay per DRAM burst
system.mem_ctrls.avgBusLat                    4999.65                       # Average bus latency per DRAM burst
system.mem_ctrls.avgMemAccLat                44261.63                       # Average memory access latency per DRAM burst
system.mem_ctrls.avgRdBW                        59.93                       # Average DRAM read bandwidth in MiByte/s
system.mem_ctrls.avgWrBW                        55.52                       # Average achieved write bandwidth in MiByte/s
system.mem_ctrls.avgRdBWSys                     59.94                       # Average system read bandwidth in MiByte/s
system.mem_ctrls.avgWrBWSys                     55.55                       # Average system write bandwidth in MiByte/s
system.mem_ctrls.peakBW                      12800.00                       # Theoretical peak bandwidth in MiByte/s
system.mem_ctrls.busUtil                         0.90                       # Data bus utilization in percentage
system.mem_ctrls.busUtilRead                     0.47                       # Data bus utilization in percentage for reads
system.mem_ctrls.busUtilWrite                    0.43                       # Data bus utilization in percentage for writes
system.mem_ctrls.avgRdQLen                       1.00                       # Average read queue length when enqueuing
system.mem_ctrls.avgWrQLen                      24.56                       # Average write queue length when enqueuing
system.mem_ctrls.readRowHits                    10380                       # Number of row buffer hits during reads
system.mem_ctrls.writeRowHits                   11191                       # Number of row buffer hits during writes
system.mem_ctrls.readRowHitRate                 72.60                       # Row buffer hit rate for reads
system.mem_ctrls.writeRowHitRate                84.45                       # Row buffer hit rate for writes
system.mem_ctrls.avgGap                     554203.22                       # Average gap between requests
system.mem_ctrls.pageHitRate                    78.30                       # Row buffer hit rate, read and write combined
system.mem_ctrls_0.actEnergy                 24147480                       # Energy for activate commands per rank (pJ)
system.mem_ctrls_0.preEnergy                 12830895                       # Energy for precharge commands per rank (pJ)
system.mem_ctrls_0.readEnergy                52921680                       # Energy for read commands per rank (pJ)
system.mem_ctrls_0.writeEnergy               37051560                       # Energy for write commands per rank (pJ)
system.mem_ctrls_0.refreshEnergy         1240958160.000000                       # Energy for refresh commands per rank (pJ)
system.mem_ctrls_0.actBackEnergy            771123360                       # Energy for active background per rank (pJ)
system.mem_ctrls_0.preBackEnergy             56610240                       # Energy for precharge background per rank (pJ)
system.mem_ctrls_0.actPowerDownEnergy      3670804560                       # Energy for active power-down per rank (pJ)
system.mem_ctrls_0.prePowerDownEnergy      1338011520                       # Energy for precharge power-down per rank (pJ)
system.mem_ctrls_0.selfRefreshEnergy        633040920                       # Energy for self refresh per rank (pJ)
system.mem_ctrls_0.totalEnergy             7837856085                       # Total energy per rank (pJ)
system.mem_ctrls_0.averagePower            513.373906                       # Core power per rank (mW)
system.mem_ctrls_0.totalIdleTime          13427864000                       # Total Idle time Per DRAM Rank
system.mem_ctrls_0.memoryStateTime::IDLE     94536000                       # Time in different power states
system.mem_ctrls_0.memoryStateTime::REF     526890000                       # Time in different power states
system.mem_ctrls_0.memoryStateTime::SREF   1893664000                       # Time in different power states
system.mem_ctrls_0.memoryStateTime::PRE_PDN   3484501000                       # Time in different power states
system.mem_ctrls_0.memoryStateTime::ACT    1217628250                       # Time in different power states
system.mem_ctrls_0.memoryStateTime::ACT_PDN   8050124875                       # Time in different power states
system.mem_ctrls_1.actEnergy                 18478320                       # Energy for activate commands per rank (pJ)
system.mem_ctrls_1.preEnergy                  9825255                       # Energy for precharge commands per rank (pJ)
system.mem_ctrls_1.readEnergy                49158900                       # Energy for read commands per rank (pJ)
system.mem_ctrls_1.writeEnergy               32082120                       # Energy for write commands per rank (pJ)
system.mem_ctrls_1.refreshEnergy         1113113040.000000                       # Energy for refresh commands per rank (pJ)
system.mem_ctrls_1.actBackEnergy            626595300                       # Energy for active background per rank (pJ)
system.mem_ctrls_1.preBackEnergy             56606880                       # Energy for precharge background per rank (pJ)
system.mem_ctrls_1.actPowerDownEnergy      3297836460                       # Energy for active power-down per rank (pJ)
system.mem_ctrls_1.prePowerDownEnergy      1185922080                       # Energy for precharge power-down per rank (pJ)
system.mem_ctrls_1.selfRefreshEnergy        993882240                       # Energy for self refresh per rank (pJ)
system.mem_ctrls_1.totalEnergy             7383581835                       # Total energy per rank (pJ)
system.mem_ctrls_1.averagePower            483.619271                       # Core power per rank (mW)
system.mem_ctrls_1.totalIdleTime          13745951500                       # Total Idle time Per DRAM Rank
system.mem_ctrls_1.memoryStateTime::IDLE     97462500                       # Time in different power states
system.mem_ctrls_1.memoryStateTime::REF     472553125                       # Time in different power states
system.mem_ctrls_1.memoryStateTime::SREF   3425380250                       # Time in different power states
system.mem_ctrls_1.memoryStateTime::PRE_PDN   3088366250                       # Time in different power states
system.mem_ctrls_1.memoryStateTime::ACT     951377000                       # Time in different power states
system.mem_ctrls_1.memoryStateTime::ACT_PDN   7232205000                       # Time in different power states
system.pwrStateResidencyTicks::UNDEFINED  15267344125                       # Cumulative time (in ticks) in various power states
system.cpu0.branchPred.lookups                5250388                       # Number of BP lookups
system.cpu0.branchPred.condPredicted          5250388                       # Number of conditional branches predicted
system.cpu0.branchPred.condIncorrect           104176                       # Number of conditional branches incorrect
system.cpu0.branchPred.BTBLookups             3600188                       # Number of BTB lookups
system.cpu0.branchPred.BTBHits                      0                       # Number of BTB hits
system.cpu0.branchPred.BTBCorrect                   0                       # Number of correct BTB predictions (this stat may not work properly.
system.cpu0.branchPred.BTBHitPct             0.000000                       # BTB Hit Percentage
system.cpu0.branchPred.usedRAS                 729785                       # Number of times the RAS was used to get a target.
system.cpu0.branchPred.RASInCorrect                 1                       # Number of incorrect RAS predictions.
system.cpu0.branchPred.indirectLookups        3600188                       # Number of indirect predictor lookups.
system.cpu0.branchPred.indirectHits           2536422                       # Number of indirect target hits.
system.cpu0.branchPred.indirectMisses         1063766                       # Number of indirect misses.
system.cpu0.branchPredindirectMispredicted            7                       # Number of mispredicted indirect branches.
system.cpu_voltage_domain.voltage                   1                       # Voltage in Volts
system.cpu_clk_domain.clock                       500                       # Clock period in ticks
system.cpu0.dtb.walker.pwrStateResidencyTicks::UNDEFINED  15267344125                       # Cumulative time (in ticks) in various power states
system.cpu0.dtb.rdAccesses                    8908857                       # TLB accesses on read requests
system.cpu0.dtb.wrAccesses                    2105976                       # TLB accesses on write requests
system.cpu0.dtb.rdMisses                          228                       # TLB misses on read requests
system.cpu0.dtb.wrMisses                            0                       # TLB misses on write requests
system.cpu0.apic_clk_domain.clock                8000                       # Clock period in ticks
system.cpu0.interrupts.pwrStateResidencyTicks::UNDEFINED  15267344125                       # Cumulative time (in ticks) in various power states
system.cpu0.itb.walker.pwrStateResidencyTicks::UNDEFINED  15267344125                       # Cumulative time (in ticks) in various power states
system.cpu0.itb.rdAccesses                          0                       # TLB accesses on read requests
system.cpu0.itb.wrAccesses                    6247762                       # TLB accesses on write requests
system.cpu0.itb.rdMisses                            0                       # TLB misses on read requests
system.cpu0.itb.wrMisses                            0                       # TLB misses on write requests
system.cpu0.workload.numSyscalls                    0                       # Number of system calls
system.cpu0.pwrStateResidencyTicks::ON    15267344125                       # Cumulative time (in ticks) in various power states
system.cpu0.numCycles                        30534688                       # number of cpu cycles simulated
system.cpu0.numWorkItemsStarted                     0                       # number of work items this cpu started
system.cpu0.numWorkItemsCompleted                   0                       # number of work items this cpu completed
system.cpu0.fetch.icacheStallCycles           6303473                       # Number of cycles fetch is stalled on an Icache miss
system.cpu0.fetch.Insts                      46186966                       # Number of instructions fetch has processed
system.cpu0.fetch.Branches                    5250388                       # Number of branches that fetch encountered
system.cpu0.fetch.predictedBranches           3266207                       # Number of branches that fetch has predicted taken
system.cpu0.fetch.Cycles                     24126936                       # Number of cycles fetch has run and was not squashing or blocked
system.cpu0.fetch.SquashCycles                 208558                       # Number of cycles fetch has spent squashing
system.cpu0.fetch.CacheLines                  6247762                       # Number of cache lines fetched
system.cpu0.fetch.IcacheSquashes                48547                       # Number of outstanding Icache misses that were squashed
system.cpu0.fetch.rateDist::samples          30534688                       # Number of instructions fetched each cycle (Total)
system.cpu0.fetch.rateDist::mean             2.644375                       # Number of instructions fetched each cycle (Total)
system.cpu0.fetch.rateDist::stdev            3.360231                       # Number of instructions fetched each cycle (Total)
system.cpu0.fetch.rateDist::underflows              0      0.00%      0.00% # Number of instructions fetched each cycle (Total)
system.cpu0.fetch.rateDist::0                16804100     55.03%     55.03% # Number of instructions fetched each cycle (Total)
system.cpu0.fetch.rateDist::1                  709700      2.32%     57.36% # Number of instructions fetched each cycle (Total)
system.cpu0.fetch.rateDist::2                 1657321      5.43%     62.78% # Number of instructions fetched each cycle (Total)
system.cpu0.fetch.rateDist::3                  686951      2.25%     65.03% # Number of instructions fetched each cycle (Total)
system.cpu0.fetch.rateDist::4                 1016775      3.33%     68.36% # Number of instructions fetched each cycle (Total)
system.cpu0.fetch.rateDist::5                 1567558      5.13%     73.50% # Number of instructions fetched each cycle (Total)
system.cpu0.fetch.rateDist::6                  577514      1.89%     75.39% # Number of instructions fetched each cycle (Total)
system.cpu0.fetch.rateDist::7                  828146      2.71%     78.10% # Number of instructions fetched each cycle (Total)
system.cpu0.fetch.rateDist::8                 6686623     21.90%    100.00% # Number of instructions fetched each cycle (Total)
system.cpu0.fetch.rateDist::overflows               0      0.00%    100.00% # Number of instructions fetched each cycle (Total)
system.cpu0.fetch.rateDist::min_value               0                       # Number of instructions fetched each cycle (Total)
system.cpu0.fetch.rateDist::max_value               8                       # Number of instructions fetched each cycle (Total)
system.cpu0.fetch.rateDist::total            30534688                       # Number of instructions fetched each cycle (Total)
system.cpu0.fetch.branchRate                 0.171948                       # Number of branch fetches per cycle
system.cpu0.fetch.rate                       1.512606                       # Number of inst fetches per cycle
system.cpu0.decode.IdleCycles                 4065814                       # Number of cycles decode is idle
system.cpu0.decode.BlockedCycles             15882860                       # Number of cycles decode is blocked
system.cpu0.decode.RunCycles                  6080070                       # Number of cycles decode is running
system.cpu0.decode.UnblockCycles              4401665                       # Number of cycles decode is unblocking
system.cpu0.decode.SquashCycles                104279                       # Number of cycles decode is squashing
system.cpu0.decode.DecodedInsts              77353475                       # Number of instructions handled by decode
system.cpu0.rename.SquashCycles                104279                       # Number of cycles rename is squashing
system.cpu0.rename.IdleCycles                 5792260                       # Number of cycles rename is idle
system.cpu0.rename.BlockCycles                5668039                       # Number of cycles rename is blocking
system.cpu0.rename.serializeStallCycles             0                       # count of cycles rename stalled for serializing inst
system.cpu0.rename.RunCycles                  8695400                       # Number of cycles rename is running
system.cpu0.rename.UnblockCycles             10274710                       # Number of cycles rename is unblocking
system.cpu0.rename.RenamedInsts              76850735                       # Number of instructions processed by rename
system.cpu0.rename.ROBFullEvents               222144                       # Number of times rename has blocked due to ROB full
system.cpu0.rename.IQFullEvents               9181195                       # Number of times rename has blocked due to IQ full
system.cpu0.rename.RenamedOperands           82628286                       # Number of destination operands rename has renamed
system.cpu0.rename.RenameLookups            182610886                       # Number of register rename lookups that rename has made
system.cpu0.rename.int_rename_lookups        60200742                       # Number of integer rename lookups
system.cpu0.rename.fp_rename_lookups         74748772                       # Number of floating rename lookups
system.cpu0.rename.CommittedMaps             70697081                       # Number of HB maps that are committed
system.cpu0.rename.UndoneMaps                11931157                       # Number of HB maps that are undone due to squashing
system.cpu0.rename.serializingInsts                 0                       # count of serializing insts renamed
system.cpu0.rename.tempSerializingInsts             0                       # count of temporary serializing insts renamed
system.cpu0.rename.skidInsts                 23618418                       # count of insts added to the skid buffer
system.cpu0.memDep0.insertedLoads             9475439                       # Number of loads inserted to the mem dependence unit.
system.cpu0.memDep0.insertedStores            2108322                       # Number of stores inserted to the mem dependence unit.
system.cpu0.memDep0.conflictingLoads           427071                       # Number of conflicting loads.
system.cpu0.memDep0.conflictingStores          196071                       # Number of conflicting stores.
system.cpu0.iq.iqInstsAdded                  76210853                       # Number of instructions added to the IQ (excludes non-spec)
system.cpu0.iq.iqInstsIssued                 70784074                       # Number of instructions issued
system.cpu0.iq.iqSquashedInstsIssued                1                       # Number of squashed instructions issued
system.cpu0.iq.iqSquashedInstsExamined       10124933                       # Number of squashed instructions iterated over during squash; mainly for profiling
system.cpu0.iq.iqSquashedOperandsExamined     14611921                       # Number of squashed operands that are examined and possibly removed from graph
system.cpu0.iq.issued_per_cycle::samples     30534688                       # Number of insts issued each cycle
system.cpu0.iq.issued_per_cycle::mean        2.318153                       # Number of insts issued each cycle
system.cpu0.iq.issued_per_cycle::stdev       1.960171                       # Number of insts issued each cycle
system.cpu0.iq.issued_per_cycle::underflows            0      0.00%      0.00% # Number of insts issued each cycle
system.cpu0.iq.issued_per_cycle::0            6329854     20.73%     20.73% # Number of insts issued each cycle
system.cpu0.iq.issued_per_cycle::1            6126344     20.06%     40.79% # Number of insts issued each cycle
system.cpu0.iq.issued_per_cycle::2            5667909     18.56%     59.36% # Number of insts issued each cycle
system.cpu0.iq.issued_per_cycle::3            4838923     15.85%     75.20% # Number of insts issued each cycle
system.cpu0.iq.issued_per_cycle::4            3000158      9.83%     85.03% # Number of insts issued each cycle
system.cpu0.iq.issued_per_cycle::5            1968510      6.45%     91.48% # Number of insts issued each cycle
system.cpu0.iq.issued_per_cycle::6            1592668      5.22%     96.69% # Number of insts issued each cycle
system.cpu0.iq.issued_per_cycle::7             676623      2.22%     98.91% # Number of insts issued each cycle
system.cpu0.iq.issued_per_cycle::8             333699      1.09%    100.00% # Number of insts issued each cycle
system.cpu0.iq.issued_per_cycle::overflows            0      0.00%    100.00% # Number of insts issued each cycle
system.cpu0.iq.issued_per_cycle::min_value            0                       # Number of insts issued each cycle
system.cpu0.iq.issued_per_cycle::max_value            8                       # Number of insts issued each cycle
system.cpu0.iq.issued_per_cycle::total       30534688                       # Number of insts issued each cycle
system.cpu0.iq.fu_full::No_OpClass                  0      0.00%      0.00% # attempts to use FU when none available
system.cpu0.iq.fu_full::IntAlu                     15      0.01%      0.01% # attempts to use FU when none available
system.cpu0.iq.fu_full::IntMult                     0      0.00%      0.01% # attempts to use FU when none available
system.cpu0.iq.fu_full::IntDiv                      0      0.00%      0.01% # attempts to use FU when none available
system.cpu0.iq.fu_full::FloatAdd               101148     99.81%     99.82% # attempts to use FU when none available
system.cpu0.iq.fu_full::FloatCmp                    0      0.00%     99.82% # attempts to use FU when none available
system.cpu0.iq.fu_full::FloatCvt                    0      0.00%     99.82% # attempts to use FU when none available
system.cpu0.iq.fu_full::FloatMult                   0      0.00%     99.82% # attempts to use FU when none available
system.cpu0.iq.fu_full::FloatMultAcc                0      0.00%     99.82% # attempts to use FU when none available
system.cpu0.iq.fu_full::FloatDiv                    0      0.00%     99.82% # attempts to use FU when none available
system.cpu0.iq.fu_full::FloatMisc                   0      0.00%     99.82% # attempts to use FU when none available
system.cpu0.iq.fu_full::FloatSqrt                   0      0.00%     99.82% # attempts to use FU when none available
system.cpu0.iq.fu_full::SimdAdd                     0      0.00%     99.82% # attempts to use FU when none available
system.cpu0.iq.fu_full::SimdAddAcc                  0      0.00%     99.82% # attempts to use FU when none available
system.cpu0.iq.fu_full::SimdAlu                     0      0.00%     99.82% # attempts to use FU when none available
system.cpu0.iq.fu_full::SimdCmp                     0      0.00%     99.82% # attempts to use FU when none available
system.cpu0.iq.fu_full::SimdCvt                     0      0.00%     99.82% # attempts to use FU when none available
system.cpu0.iq.fu_full::SimdMisc                    0      0.00%     99.82% # attempts to use FU when none available
system.cpu0.iq.fu_full::SimdMult                    0      0.00%     99.82% # attempts to use FU when none available
system.cpu0.iq.fu_full::SimdMultAcc                 0      0.00%     99.82% # attempts to use FU when none available
system.cpu0.iq.fu_full::SimdShift                   0      0.00%     99.82% # attempts to use FU when none available
system.cpu0.iq.fu_full::SimdShiftAcc                0      0.00%     99.82% # attempts to use FU when none available
system.cpu0.iq.fu_full::SimdSqrt                    0      0.00%     99.82% # attempts to use FU when none available
system.cpu0.iq.fu_full::SimdFloatAdd                0      0.00%     99.82% # attempts to use FU when none available
system.cpu0.iq.fu_full::SimdFloatAlu                0      0.00%     99.82% # attempts to use FU when none available
system.cpu0.iq.fu_full::SimdFloatCmp                0      0.00%     99.82% # attempts to use FU when none available
system.cpu0.iq.fu_full::SimdFloatCvt                0      0.00%     99.82% # attempts to use FU when none available
system.cpu0.iq.fu_full::SimdFloatDiv                0      0.00%     99.82% # attempts to use FU when none available
system.cpu0.iq.fu_full::SimdFloatMisc               0      0.00%     99.82% # attempts to use FU when none available
system.cpu0.iq.fu_full::SimdFloatMult               0      0.00%     99.82% # attempts to use FU when none available
system.cpu0.iq.fu_full::SimdFloatMultAcc            0      0.00%     99.82% # attempts to use FU when none available
system.cpu0.iq.fu_full::SimdFloatSqrt               0      0.00%     99.82% # attempts to use FU when none available
system.cpu0.iq.fu_full::MemRead                   182      0.18%    100.00% # attempts to use FU when none available
system.cpu0.iq.fu_full::MemWrite                    0      0.00%    100.00% # attempts to use FU when none available
system.cpu0.iq.fu_full::FloatMemRead                0      0.00%    100.00% # attempts to use FU when none available
system.cpu0.iq.fu_full::FloatMemWrite               0      0.00%    100.00% # attempts to use FU when none available
system.cpu0.iq.fu_full::IprAccess                   0      0.00%    100.00% # attempts to use FU when none available
system.cpu0.iq.fu_full::InstPrefetch                0      0.00%    100.00% # attempts to use FU when none available
system.cpu0.iq.FU_type_0::No_OpClass             6235      0.01%      0.01% # Type of FU issued
system.cpu0.iq.FU_type_0::IntAlu             36819078     52.02%     52.02% # Type of FU issued
system.cpu0.iq.FU_type_0::IntMult                   0      0.00%     52.02% # Type of FU issued
system.cpu0.iq.FU_type_0::IntDiv                    0      0.00%     52.02% # Type of FU issued
system.cpu0.iq.FU_type_0::FloatAdd           22968544     32.45%     84.47% # Type of FU issued
system.cpu0.iq.FU_type_0::FloatCmp                  0      0.00%     84.47% # Type of FU issued
system.cpu0.iq.FU_type_0::FloatCvt                  0      0.00%     84.47% # Type of FU issued
system.cpu0.iq.FU_type_0::FloatMult                 0      0.00%     84.47% # Type of FU issued
system.cpu0.iq.FU_type_0::FloatMultAcc              0      0.00%     84.47% # Type of FU issued
system.cpu0.iq.FU_type_0::FloatDiv                  0      0.00%     84.47% # Type of FU issued
system.cpu0.iq.FU_type_0::FloatMisc                 0      0.00%     84.47% # Type of FU issued
system.cpu0.iq.FU_type_0::FloatSqrt                 0      0.00%     84.47% # Type of FU issued
system.cpu0.iq.FU_type_0::SimdAdd                   0      0.00%     84.47% # Type of FU issued
system.cpu0.iq.FU_type_0::SimdAddAcc                0      0.00%     84.47% # Type of FU issued
system.cpu0.iq.FU_type_0::SimdAlu                   0      0.00%     84.47% # Type of FU issued
system.cpu0.iq.FU_type_0::SimdCmp                   0      0.00%     84.47% # Type of FU issued
system.cpu0.iq.FU_type_0::SimdCvt                   0      0.00%     84.47% # Type of FU issued
system.cpu0.iq.FU_type_0::SimdMisc                  0      0.00%     84.47% # Type of FU issued
system.cpu0.iq.FU_type_0::SimdMult                  0      0.00%     84.47% # Type of FU issued
system.cpu0.iq.FU_type_0::SimdMultAcc               0      0.00%     84.47% # Type of FU issued
system.cpu0.iq.FU_type_0::SimdShift                 0      0.00%     84.47% # Type of FU issued
system.cpu0.iq.FU_type_0::SimdShiftAcc              0      0.00%     84.47% # Type of FU issued
system.cpu0.iq.FU_type_0::SimdSqrt                  0      0.00%     84.47% # Type of FU issued
system.cpu0.iq.FU_type_0::SimdFloatAdd              0      0.00%     84.47% # Type of FU issued
system.cpu0.iq.FU_type_0::SimdFloatAlu              0      0.00%     84.47% # Type of FU issued
system.cpu0.iq.FU_type_0::SimdFloatCmp              0      0.00%     84.47% # Type of FU issued
system.cpu0.iq.FU_type_0::SimdFloatCvt              0      0.00%     84.47% # Type of FU issued
system.cpu0.iq.FU_type_0::SimdFloatDiv              0      0.00%     84.47% # Type of FU issued
system.cpu0.iq.FU_type_0::SimdFloatMisc             0      0.00%     84.47% # Type of FU issued
system.cpu0.iq.FU_type_0::SimdFloatMult             0      0.00%     84.47% # Type of FU issued
system.cpu0.iq.FU_type_0::SimdFloatMultAcc            0      0.00%     84.47% # Type of FU issued
system.cpu0.iq.FU_type_0::SimdFloatSqrt             0      0.00%     84.47% # Type of FU issued
system.cpu0.iq.FU_type_0::MemRead             1965623      2.78%     87.25% # Type of FU issued
system.cpu0.iq.FU_type_0::MemWrite            1477274      2.09%     89.34% # Type of FU issued
system.cpu0.iq.FU_type_0::FloatMemRead        6918010      9.77%     99.11% # Type of FU issued
system.cpu0.iq.FU_type_0::FloatMemWrite        629310      0.89%    100.00% # Type of FU issued
system.cpu0.iq.FU_type_0::IprAccess                 0      0.00%    100.00% # Type of FU issued
system.cpu0.iq.FU_type_0::InstPrefetch              0      0.00%    100.00% # Type of FU issued
system.cpu0.iq.FU_type_0::total              70784074                       # Type of FU issued
system.cpu0.iq.rate                          2.318153                       # Inst issue rate
system.cpu0.iq.fu_busy_cnt                     101345                       # FU busy when requested
system.cpu0.iq.fu_busy_rate                  0.001432                       # FU busy rate (busy events/executed inst)
system.cpu0.iq.int_inst_queue_reads          97557486                       # Number of integer instruction queue reads
system.cpu0.iq.int_inst_queue_writes         37369830                       # Number of integer instruction queue writes
system.cpu0.iq.int_inst_queue_wakeup_accesses     33449784                       # Number of integer instruction queue wakeup accesses
system.cpu0.iq.fp_inst_queue_reads           74646698                       # Number of floating instruction queue reads
system.cpu0.iq.fp_inst_queue_writes          48966059                       # Number of floating instruction queue writes
system.cpu0.iq.fp_inst_queue_wakeup_accesses     37130014                       # Number of floating instruction queue wakeup accesses
system.cpu0.iq.vec_inst_queue_reads                 0                       # Number of vector instruction queue reads
system.cpu0.iq.vec_inst_queue_writes                0                       # Number of vector instruction queue writes
system.cpu0.iq.vec_inst_queue_wakeup_accesses            0                       # Number of vector instruction queue wakeup accesses
system.cpu0.iq.int_alu_accesses              33505256                       # Number of integer alu accesses
system.cpu0.iq.fp_alu_accesses               37373928                       # Number of floating point alu accesses
system.cpu0.iq.vec_alu_accesses                     0                       # Number of vector alu accesses
system.cpu0.iew.lsq.thread0.forwLoads          420766                       # Number of loads that had data forwarded from stores
system.cpu0.iew.lsq.thread0.invAddrLoads            0                       # Number of loads ignored due to an invalid address
system.cpu0.iew.lsq.thread0.squashedLoads      1340832                       # Number of loads squashed
system.cpu0.iew.lsq.thread0.ignoredResponses            2                       # Number of memory responses ignored because the instruction is squashed
system.cpu0.iew.lsq.thread0.memOrderViolation          103                       # Number of memory ordering violations
system.cpu0.iew.lsq.thread0.squashedStores         3550                       # Number of stores squashed
system.cpu0.iew.lsq.thread0.invAddrSwpfs            0                       # Number of software prefetches ignored due to an invalid address
system.cpu0.iew.lsq.thread0.blockedLoads            0                       # Number of blocked loads due to partial load-store forwarding
system.cpu0.iew.lsq.thread0.rescheduledLoads            0                       # Number of loads that were rescheduled
system.cpu0.iew.lsq.thread0.cacheBlocked            0                       # Number of times an access to memory failed due to the cache being blocked
system.cpu0.iew.iewIdleCycles                       0                       # Number of cycles IEW is idle
system.cpu0.iew.iewSquashCycles                104279                       # Number of cycles IEW is squashing
system.cpu0.iew.iewBlockCycles                3298317                       # Number of cycles IEW is blocking
system.cpu0.iew.iewUnblockCycles               119039                       # Number of cycles IEW is unblocking
system.cpu0.iew.iewDispatchedInsts           76210853                       # Number of instructions dispatched to IQ
system.cpu0.iew.iewDispSquashedInsts                0                       # Number of squashed instructions skipped by dispatch
system.cpu0.iew.iewDispLoadInsts              9475439                       # Number of dispatched load instructions
system.cpu0.iew.iewDispStoreInsts             2108322                       # Number of dispatched store instructions
system.cpu0.iew.iewDispNonSpecInsts                 0                       # Number of dispatched non-speculative instructions
system.cpu0.iew.iewIQFullEvents                105426                       # Number of times the IQ has become full, causing a stall
system.cpu0.iew.iewLSQFullEvents                    0                       # Number of times the LSQ has become full, causing a stall
system.cpu0.iew.memOrderViolationEvents           103                       # Number of memory order violations
system.cpu0.iew.predictedTakenIncorrect         59443                       # Number of branches that were predicted taken incorrectly
system.cpu0.iew.predictedNotTakenIncorrect        44738                       # Number of branches that were predicted not taken incorrectly
system.cpu0.iew.branchMispredicts              104181                       # Number of branch mispredicts detected at execute
system.cpu0.iew.iewExecutedInsts             70588568                       # Number of executed instructions
system.cpu0.iew.iewExecLoadInsts              8882478                       # Number of load instructions executed
system.cpu0.iew.iewExecSquashedInsts           195508                       # Number of squashed instructions skipped in execute
system.cpu0.iew.exec_swp                            0                       # number of swp insts executed
system.cpu0.iew.exec_nop                            0                       # number of nop insts executed
system.cpu0.iew.exec_refs                    10988454                       # number of memory reference insts executed
system.cpu0.iew.exec_branches                 4727803                       # Number of branches executed
system.cpu0.iew.exec_stores                   2105976                       # Number of stores executed
system.cpu0.iew.exec_rate                    2.311750                       # Inst execution rate
system.cpu0.iew.wb_sent                      70584490                       # cumulative count of insts sent to commit
system.cpu0.iew.wb_count                     70579798                       # cumulative count of insts written-back
system.cpu0.iew.wb_producers                 52564929                       # num instructions producing a value
system.cpu0.iew.wb_consumers                 92578784                       # num instructions consuming a value
system.cpu0.iew.wb_rate                      2.311463                       # insts written-back per cycle
system.cpu0.iew.wb_fanout                    0.567786                       # average fanout of values written-back
system.cpu0.commit.commitSquashedInsts       10124933                       # The number of squashed insts skipped by commit
system.cpu0.commit.branchMispredicts           104176                       # The number of times a branch was mispredicted
system.cpu0.commit.committed_per_cycle::samples     29239597                       # Number of insts commited each cycle
system.cpu0.commit.committed_per_cycle::mean     2.260149                       # Number of insts commited each cycle
system.cpu0.commit.committed_per_cycle::stdev     2.864072                       # Number of insts commited each cycle
system.cpu0.commit.committed_per_cycle::underflows            0      0.00%      0.00% # Number of insts commited each cycle
system.cpu0.commit.committed_per_cycle::0     10949278     37.45%     37.45% # Number of insts commited each cycle
system.cpu0.commit.committed_per_cycle::1      7530555     25.75%     63.20% # Number of insts commited each cycle
system.cpu0.commit.committed_per_cycle::2      1059305      3.62%     66.82% # Number of insts commited each cycle
system.cpu0.commit.committed_per_cycle::3      2913372      9.96%     76.79% # Number of insts commited each cycle
system.cpu0.commit.committed_per_cycle::4      1141887      3.91%     80.69% # Number of insts commited each cycle
system.cpu0.commit.committed_per_cycle::5       217830      0.74%     81.44% # Number of insts commited each cycle
system.cpu0.commit.committed_per_cycle::6       422016      1.44%     82.88% # Number of insts commited each cycle
system.cpu0.commit.committed_per_cycle::7       535047      1.83%     84.71% # Number of insts commited each cycle
system.cpu0.commit.committed_per_cycle::8      4470307     15.29%    100.00% # Number of insts commited each cycle
system.cpu0.commit.committed_per_cycle::overflows            0      0.00%    100.00% # Number of insts commited each cycle
system.cpu0.commit.committed_per_cycle::min_value            0                       # Number of insts commited each cycle
system.cpu0.commit.committed_per_cycle::max_value            8                       # Number of insts commited each cycle
system.cpu0.commit.committed_per_cycle::total     29239597                       # Number of insts commited each cycle
system.cpu0.commit.committedInsts            37227748                       # Number of instructions committed
system.cpu0.commit.committedOps              66085860                       # Number of ops (including micro ops) committed
system.cpu0.commit.swp_count                        0                       # Number of s/w prefetches committed
system.cpu0.commit.refs                      10239365                       # Number of memory references committed
system.cpu0.commit.loads                      8134603                       # Number of loads committed
system.cpu0.commit.membars                          0                       # Number of memory barriers committed
system.cpu0.commit.branches                   4626057                       # Number of branches committed
system.cpu0.commit.vec_insts                        0                       # Number of committed Vector instructions.
system.cpu0.commit.fp_insts                  34174295                       # Number of committed floating point instructions.
system.cpu0.commit.int_insts                 41021436                       # Number of committed integer instructions.
system.cpu0.commit.function_calls              629298                       # Number of function calls committed.
system.cpu0.commit.op_class_0::No_OpClass         6009      0.01%      0.01% # Class of committed instruction
system.cpu0.commit.op_class_0::IntAlu        34348230     51.98%     51.98% # Class of committed instruction
system.cpu0.commit.op_class_0::IntMult              0      0.00%     51.98% # Class of committed instruction
system.cpu0.commit.op_class_0::IntDiv               0      0.00%     51.98% # Class of committed instruction
system.cpu0.commit.op_class_0::FloatAdd      21492256     32.52%     84.51% # Class of committed instruction
system.cpu0.commit.op_class_0::FloatCmp             0      0.00%     84.51% # Class of committed instruction
system.cpu0.commit.op_class_0::FloatCvt             0      0.00%     84.51% # Class of committed instruction
system.cpu0.commit.op_class_0::FloatMult            0      0.00%     84.51% # Class of committed instruction
system.cpu0.commit.op_class_0::FloatMultAcc            0      0.00%     84.51% # Class of committed instruction
system.cpu0.commit.op_class_0::FloatDiv             0      0.00%     84.51% # Class of committed instruction
system.cpu0.commit.op_class_0::FloatMisc            0      0.00%     84.51% # Class of committed instruction
system.cpu0.commit.op_class_0::FloatSqrt            0      0.00%     84.51% # Class of committed instruction
system.cpu0.commit.op_class_0::SimdAdd              0      0.00%     84.51% # Class of committed instruction
system.cpu0.commit.op_class_0::SimdAddAcc            0      0.00%     84.51% # Class of committed instruction
system.cpu0.commit.op_class_0::SimdAlu              0      0.00%     84.51% # Class of committed instruction
system.cpu0.commit.op_class_0::SimdCmp              0      0.00%     84.51% # Class of committed instruction
system.cpu0.commit.op_class_0::SimdCvt              0      0.00%     84.51% # Class of committed instruction
system.cpu0.commit.op_class_0::SimdMisc             0      0.00%     84.51% # Class of committed instruction
system.cpu0.commit.op_class_0::SimdMult             0      0.00%     84.51% # Class of committed instruction
system.cpu0.commit.op_class_0::SimdMultAcc            0      0.00%     84.51% # Class of committed instruction
system.cpu0.commit.op_class_0::SimdShift            0      0.00%     84.51% # Class of committed instruction
system.cpu0.commit.op_class_0::SimdShiftAcc            0      0.00%     84.51% # Class of committed instruction
system.cpu0.commit.op_class_0::SimdSqrt             0      0.00%     84.51% # Class of committed instruction
system.cpu0.commit.op_class_0::SimdFloatAdd            0      0.00%     84.51% # Class of committed instruction
system.cpu0.commit.op_class_0::SimdFloatAlu            0      0.00%     84.51% # Class of committed instruction
system.cpu0.commit.op_class_0::SimdFloatCmp            0      0.00%     84.51% # Class of committed instruction
system.cpu0.commit.op_class_0::SimdFloatCvt            0      0.00%     84.51% # Class of committed instruction
system.cpu0.commit.op_class_0::SimdFloatDiv            0      0.00%     84.51% # Class of committed instruction
system.cpu0.commit.op_class_0::SimdFloatMisc            0      0.00%     84.51% # Class of committed instruction
system.cpu0.commit.op_class_0::SimdFloatMult            0      0.00%     84.51% # Class of committed instruction
system.cpu0.commit.op_class_0::SimdFloatMultAcc            0      0.00%     84.51% # Class of committed instruction
system.cpu0.commit.op_class_0::SimdFloatSqrt            0      0.00%     84.51% # Class of committed instruction
system.cpu0.commit.op_class_0::MemRead        1955455      2.96%     87.46% # Class of committed instruction
system.cpu0.commit.op_class_0::MemWrite       1475463      2.23%     89.70% # Class of committed instruction
system.cpu0.commit.op_class_0::FloatMemRead      6179148      9.35%     99.05% # Class of committed instruction
system.cpu0.commit.op_class_0::FloatMemWrite       629299      0.95%    100.00% # Class of committed instruction
system.cpu0.commit.op_class_0::IprAccess            0      0.00%    100.00% # Class of committed instruction
system.cpu0.commit.op_class_0::InstPrefetch            0      0.00%    100.00% # Class of committed instruction
system.cpu0.commit.op_class_0::total         66085860                       # Class of committed instruction
system.cpu0.commit.bw_lim_events              4470307                       # number cycles where commit BW limit reached
system.cpu0.rob.rob_reads                   100980083                       # The number of ROB reads
system.cpu0.rob.rob_writes                  153716752                       # The number of ROB writes
system.cpu0.committedInsts                   37227748                       # Number of Instructions Simulated
system.cpu0.committedOps                     66085860                       # Number of Ops (including micro ops) Simulated
system.cpu0.cpi                              0.820213                       # CPI: Cycles Per Instruction
system.cpu0.cpi_total                        0.820213                       # CPI: Total CPI of All Threads
system.cpu0.ipc                              1.219195                       # IPC: Instructions Per Cycle
system.cpu0.ipc_total                        1.219195                       # IPC: Total IPC of All Threads
system.cpu0.int_regfile_reads                56246990                       # number of integer regfile reads
system.cpu0.int_regfile_writes               28594711                       # number of integer regfile writes
system.cpu0.fp_regfile_reads                 64748748                       # number of floating regfile reads
system.cpu0.fp_regfile_writes                33260597                       # number of floating regfile writes
system.cpu0.cc_regfile_reads                 20681800                       # number of cc regfile reads
system.cpu0.cc_regfile_writes                13436168                       # number of cc regfile writes
system.cpu0.misc_regfile_reads               24128765                       # number of misc regfile reads
system.cpu0.dcache.tags.pwrStateResidencyTicks::UNDEFINED  15267344125                       # Cumulative time (in ticks) in various power states
system.cpu0.dcache.tags.replacements            14310                       # number of replacements
system.cpu0.dcache.tags.tagsinuse                1024                       # Cycle average of tags in use
system.cpu0.dcache.tags.total_refs            1081913                       # Total number of references to valid blocks.
system.cpu0.dcache.tags.sampled_refs            14310                       # Sample count of references to valid blocks.
system.cpu0.dcache.tags.avg_refs            75.605381                       # Average number of references to valid blocks.
system.cpu0.dcache.tags.warmup_cycle                0                       # Cycle when the warmup percentage was hit.
system.cpu0.dcache.tags.occ_blocks::cpu0.data         1024                       # Average occupied blocks per requestor
system.cpu0.dcache.tags.occ_percent::cpu0.data            1                       # Average percentage of cache occupancy
system.cpu0.dcache.tags.occ_percent::total            1                       # Average percentage of cache occupancy
system.cpu0.dcache.tags.occ_task_id_blocks::1024         1024                       # Occupied blocks per task id
system.cpu0.dcache.tags.age_task_id_blocks_1024::0           10                       # Occupied blocks per task id
system.cpu0.dcache.tags.age_task_id_blocks_1024::1           83                       # Occupied blocks per task id
system.cpu0.dcache.tags.age_task_id_blocks_1024::2          684                       # Occupied blocks per task id
system.cpu0.dcache.tags.age_task_id_blocks_1024::3           29                       # Occupied blocks per task id
system.cpu0.dcache.tags.age_task_id_blocks_1024::4          218                       # Occupied blocks per task id
system.cpu0.dcache.tags.occ_task_id_percent::1024            1                       # Percentage of cache occupancy per task id
system.cpu0.dcache.tags.tag_accesses         42385714                       # Number of tag accesses
system.cpu0.dcache.tags.data_accesses        42385714                       # Number of data accesses
system.cpu0.dcache.pwrStateResidencyTicks::UNDEFINED  15267344125                       # Cumulative time (in ticks) in various power states
system.cpu0.dcache.ReadReq_hits::cpu0.data      8473684                       # number of ReadReq hits
system.cpu0.dcache.ReadReq_hits::total        8473684                       # number of ReadReq hits
system.cpu0.dcache.WriteReq_hits::cpu0.data      2104762                       # number of WriteReq hits
system.cpu0.dcache.WriteReq_hits::total       2104762                       # number of WriteReq hits
system.cpu0.dcache.demand_hits::cpu0.data     10578446                       # number of demand (read+write) hits
system.cpu0.dcache.demand_hits::total        10578446                       # number of demand (read+write) hits
system.cpu0.dcache.overall_hits::cpu0.data     10578446                       # number of overall hits
system.cpu0.dcache.overall_hits::total       10578446                       # number of overall hits
system.cpu0.dcache.ReadReq_misses::cpu0.data        14405                       # number of ReadReq misses
system.cpu0.dcache.ReadReq_misses::total        14405                       # number of ReadReq misses
system.cpu0.dcache.demand_misses::cpu0.data        14405                       # number of demand (read+write) misses
system.cpu0.dcache.demand_misses::total         14405                       # number of demand (read+write) misses
system.cpu0.dcache.overall_misses::cpu0.data        14405                       # number of overall misses
system.cpu0.dcache.overall_misses::total        14405                       # number of overall misses
system.cpu0.dcache.ReadReq_miss_latency::cpu0.data   1405837000                       # number of ReadReq miss cycles
system.cpu0.dcache.ReadReq_miss_latency::total   1405837000                       # number of ReadReq miss cycles
system.cpu0.dcache.demand_miss_latency::cpu0.data   1405837000                       # number of demand (read+write) miss cycles
system.cpu0.dcache.demand_miss_latency::total   1405837000                       # number of demand (read+write) miss cycles
system.cpu0.dcache.overall_miss_latency::cpu0.data   1405837000                       # number of overall miss cycles
system.cpu0.dcache.overall_miss_latency::total   1405837000                       # number of overall miss cycles
system.cpu0.dcache.ReadReq_accesses::cpu0.data      8488089                       # number of ReadReq accesses(hits+misses)
system.cpu0.dcache.ReadReq_accesses::total      8488089                       # number of ReadReq accesses(hits+misses)
system.cpu0.dcache.WriteReq_accesses::cpu0.data      2104762                       # number of WriteReq accesses(hits+misses)
system.cpu0.dcache.WriteReq_accesses::total      2104762                       # number of WriteReq accesses(hits+misses)
system.cpu0.dcache.demand_accesses::cpu0.data     10592851                       # number of demand (read+write) accesses
system.cpu0.dcache.demand_accesses::total     10592851                       # number of demand (read+write) accesses
system.cpu0.dcache.overall_accesses::cpu0.data     10592851                       # number of overall (read+write) accesses
system.cpu0.dcache.overall_accesses::total     10592851                       # number of overall (read+write) accesses
system.cpu0.dcache.ReadReq_miss_rate::cpu0.data     0.001697                       # miss rate for ReadReq accesses
system.cpu0.dcache.ReadReq_miss_rate::total     0.001697                       # miss rate for ReadReq accesses
system.cpu0.dcache.demand_miss_rate::cpu0.data     0.001360                       # miss rate for demand accesses
system.cpu0.dcache.demand_miss_rate::total     0.001360                       # miss rate for demand accesses
system.cpu0.dcache.overall_miss_rate::cpu0.data     0.001360                       # miss rate for overall accesses
system.cpu0.dcache.overall_miss_rate::total     0.001360                       # miss rate for overall accesses
system.cpu0.dcache.ReadReq_avg_miss_latency::cpu0.data 97593.682749                       # average ReadReq miss latency
system.cpu0.dcache.ReadReq_avg_miss_latency::total 97593.682749                       # average ReadReq miss latency
system.cpu0.dcache.demand_avg_miss_latency::cpu0.data 97593.682749                       # average overall miss latency
system.cpu0.dcache.demand_avg_miss_latency::total 97593.682749                       # average overall miss latency
system.cpu0.dcache.overall_avg_miss_latency::cpu0.data 97593.682749                       # average overall miss latency
system.cpu0.dcache.overall_avg_miss_latency::total 97593.682749                       # average overall miss latency
system.cpu0.dcache.blocked_cycles::no_mshrs            0                       # number of cycles access was blocked
system.cpu0.dcache.blocked_cycles::no_targets            0                       # number of cycles access was blocked
system.cpu0.dcache.blocked::no_mshrs                0                       # number of cycles access was blocked
system.cpu0.dcache.blocked::no_targets              0                       # number of cycles access was blocked
system.cpu0.dcache.avg_blocked_cycles::no_mshrs          nan                       # average number of cycles each access was blocked
[...]
system.l2.overall_miss_latency::total      1363106000                       # number of overall miss cycles
system.l2.WritebackDirty_accesses::writebacks        13466                       # number of WritebackDirty accesses(hits+misses)
system.l2.WritebackDirty_accesses::total        13466                       # number of WritebackDirty accesses(hits+misses)
system.l2.WritebackClean_accesses::writebacks            1                       # number of WritebackClean accesses(hits+misses)
system.l2.WritebackClean_accesses::total            1                       # number of WritebackClean accesses(hits+misses)
system.l2.ReadCleanReq_accesses::cpu0.inst            1                       # number of ReadCleanReq accesses(hits+misses)
system.l2.ReadCleanReq_accesses::total              1                       # number of ReadCleanReq accesses(hits+misses)
system.l2.ReadSharedReq_accesses::cpu0.data        14311                       # number of ReadSharedReq accesses(hits+misses)
system.l2.ReadSharedReq_accesses::total         14311                       # number of ReadSharedReq accesses(hits+misses)
system.l2.demand_accesses::cpu0.inst                1                       # number of demand (read+write) accesses
system.l2.demand_accesses::cpu0.data            14311                       # number of demand (read+write) accesses
system.l2.demand_accesses::total                14312                       # number of demand (read+write) accesses
system.l2.overall_accesses::cpu0.inst               1                       # number of overall (read+write) accesses
system.l2.overall_accesses::cpu0.data           14311                       # number of overall (read+write) accesses
system.l2.overall_accesses::total               14312                       # number of overall (read+write) accesses
system.l2.ReadCleanReq_miss_rate::cpu0.inst            1                       # miss rate for ReadCleanReq accesses
system.l2.ReadCleanReq_miss_rate::total             1                       # miss rate for ReadCleanReq accesses
system.l2.ReadSharedReq_miss_rate::cpu0.data     0.999022                       # miss rate for ReadSharedReq accesses
system.l2.ReadSharedReq_miss_rate::total     0.999022                       # miss rate for ReadSharedReq accesses
system.l2.demand_miss_rate::cpu0.inst               1                       # miss rate for demand accesses
system.l2.demand_miss_rate::cpu0.data        0.999022                       # miss rate for demand accesses
system.l2.demand_miss_rate::total            0.999022                       # miss rate for demand accesses
system.l2.overall_miss_rate::cpu0.inst              1                       # miss rate for overall accesses
system.l2.overall_miss_rate::cpu0.data       0.999022                       # miss rate for overall accesses
system.l2.overall_miss_rate::total           0.999022                       # miss rate for overall accesses
system.l2.ReadCleanReq_avg_miss_latency::cpu0.inst        89500                       # average ReadCleanReq miss latency
system.l2.ReadCleanReq_avg_miss_latency::total        89500                       # average ReadCleanReq miss latency
system.l2.ReadSharedReq_avg_miss_latency::cpu0.data 95335.839687                       # average ReadSharedReq miss latency
system.l2.ReadSharedReq_avg_miss_latency::total 95335.839687                       # average ReadSharedReq miss latency
system.l2.demand_avg_miss_latency::cpu0.inst        89500                       # average overall miss latency
system.l2.demand_avg_miss_latency::cpu0.data 95335.839687                       # average overall miss latency
system.l2.demand_avg_miss_latency::total 95335.431529                       # average overall miss latency
system.l2.overall_avg_miss_latency::cpu0.inst        89500                       # average overall miss latency
system.l2.overall_avg_miss_latency::cpu0.data 95335.839687                       # average overall miss latency
system.l2.overall_avg_miss_latency::total 95335.431529                       # average overall miss latency
system.l2.blocked_cycles::no_mshrs                  0                       # number of cycles access was blocked
system.l2.blocked_cycles::no_targets                0                       # number of cycles access was blocked
system.l2.blocked::no_mshrs                         0                       # number of cycles access was blocked
system.l2.blocked::no_targets                       0                       # number of cycles access was blocked
system.l2.avg_blocked_cycles::no_mshrs            nan                       # average number of cycles each access was blocked
system.l2.avg_blocked_cycles::no_targets          nan                       # average number of cycles each access was blocked
system.l2.writebacks::writebacks                13251                       # number of writebacks
system.l2.writebacks::total                     13251                       # number of writebacks
system.l2.ReadCleanReq_mshr_misses::cpu0.inst            1                       # number of ReadCleanReq MSHR misses
system.l2.ReadCleanReq_mshr_misses::total            1                       # number of ReadCleanReq MSHR misses
system.l2.ReadSharedReq_mshr_misses::cpu0.data        14297                       # number of ReadSharedReq MSHR misses
system.l2.ReadSharedReq_mshr_misses::total        14297                       # number of ReadSharedReq MSHR misses
system.l2.demand_mshr_misses::cpu0.inst             1                       # number of demand (read+write) MSHR misses
system.l2.demand_mshr_misses::cpu0.data         14297                       # number of demand (read+write) MSHR misses
system.l2.demand_mshr_misses::total             14298                       # number of demand (read+write) MSHR misses
system.l2.overall_mshr_misses::cpu0.inst            1                       # number of overall MSHR misses
system.l2.overall_mshr_misses::cpu0.data        14297                       # number of overall MSHR misses
system.l2.overall_mshr_misses::total            14298                       # number of overall MSHR misses
system.l2.ReadCleanReq_mshr_miss_latency::cpu0.inst        79500                       # number of ReadCleanReq MSHR miss cycles
system.l2.ReadCleanReq_mshr_miss_latency::total        79500                       # number of ReadCleanReq MSHR miss cycles
system.l2.ReadSharedReq_mshr_miss_latency::cpu0.data   1220056500                       # number of ReadSharedReq MSHR miss cycles
system.l2.ReadSharedReq_mshr_miss_latency::total   1220056500                       # number of ReadSharedReq MSHR miss cycles
system.l2.demand_mshr_miss_latency::cpu0.inst        79500                       # number of demand (read+write) MSHR miss cycles
system.l2.demand_mshr_miss_latency::cpu0.data   1220056500                       # number of demand (read+write) MSHR miss cycles
system.l2.demand_mshr_miss_latency::total   1220136000                       # number of demand (read+write) MSHR miss cycles
system.l2.overall_mshr_miss_latency::cpu0.inst        79500                       # number of overall MSHR miss cycles
system.l2.overall_mshr_miss_latency::cpu0.data   1220056500                       # number of overall MSHR miss cycles
system.l2.overall_mshr_miss_latency::total   1220136000                       # number of overall MSHR miss cycles
system.l2.ReadCleanReq_mshr_miss_rate::cpu0.inst            1                       # mshr miss rate for ReadCleanReq accesses
system.l2.ReadCleanReq_mshr_miss_rate::total            1                       # mshr miss rate for ReadCleanReq accesses
system.l2.ReadSharedReq_mshr_miss_rate::cpu0.data     0.999022                       # mshr miss rate for ReadSharedReq accesses
system.l2.ReadSharedReq_mshr_miss_rate::total     0.999022                       # mshr miss rate for ReadSharedReq accesses
system.l2.demand_mshr_miss_rate::cpu0.inst            1                       # mshr miss rate for demand accesses
system.l2.demand_mshr_miss_rate::cpu0.data     0.999022                       # mshr miss rate for demand accesses
system.l2.demand_mshr_miss_rate::total       0.999022                       # mshr miss rate for demand accesses
system.l2.overall_mshr_miss_rate::cpu0.inst            1                       # mshr miss rate for overall accesses
system.l2.overall_mshr_miss_rate::cpu0.data     0.999022                       # mshr miss rate for overall accesses
system.l2.overall_mshr_miss_rate::total      0.999022                       # mshr miss rate for overall accesses
system.l2.ReadCleanReq_avg_mshr_miss_latency::cpu0.inst        79500                       # average ReadCleanReq mshr miss latency
system.l2.ReadCleanReq_avg_mshr_miss_latency::total        79500                       # average ReadCleanReq mshr miss latency
system.l2.ReadSharedReq_avg_mshr_miss_latency::cpu0.data 85336.539134                       # average ReadSharedReq mshr miss latency
system.l2.ReadSharedReq_avg_mshr_miss_latency::total 85336.539134                       # average ReadSharedReq mshr miss latency
system.l2.demand_avg_mshr_miss_latency::cpu0.inst        79500                       # average overall mshr miss latency
system.l2.demand_avg_mshr_miss_latency::cpu0.data 85336.539134                       # average overall mshr miss latency
system.l2.demand_avg_mshr_miss_latency::total 85336.130927                       # average overall mshr miss latency
system.l2.overall_avg_mshr_miss_latency::cpu0.inst        79500                       # average overall mshr miss latency
system.l2.overall_avg_mshr_miss_latency::cpu0.data 85336.539134                       # average overall mshr miss latency
system.l2.overall_avg_mshr_miss_latency::total 85336.130927                       # average overall mshr miss latency
system.membus.snoop_filter.tot_requests         28596                       # Total number of requests made to the snoop filter.
system.membus.snoop_filter.hit_single_requests        14298                       # Number of requests hitting in the snoop filter with a single holder of the requested data.
system.membus.snoop_filter.hit_multi_requests            0                       # Number of requests hitting in the snoop filter with multiple (>1) holders of the requested data.
system.membus.snoop_filter.tot_snoops               0                       # Total number of snoops made to the snoop filter.
system.membus.snoop_filter.hit_single_snoops            0                       # Number of snoops hitting in the snoop filter with a single holder of the requested data.
system.membus.snoop_filter.hit_multi_snoops            0                       # Number of snoops hitting in the snoop filter with multiple (>1) holders of the requested data.
system.membus.pwrStateResidencyTicks::UNDEFINED  15267344125                       # Cumulative time (in ticks) in various power states
system.membus.trans_dist::ReadResp              14297                       # Transaction distribution
system.membus.trans_dist::WritebackDirty        13251                       # Transaction distribution
system.membus.trans_dist::CleanEvict             1047                       # Transaction distribution
system.membus.trans_dist::ReadSharedReq         14298                       # Transaction distribution
system.membus.pkt_count_system.l2.mem_side::system.mem_ctrls.port        42893                       # Packet count per connected master and slave (bytes)
system.membus.pkt_count_system.l2.mem_side::total        42893                       # Packet count per connected master and slave (bytes)
system.membus.pkt_count::total                  42893                       # Packet count per connected master and slave (bytes)
system.membus.pkt_size_system.l2.mem_side::system.mem_ctrls.port      1763072                       # Cumulative packet size per connected master and slave (bytes)
system.membus.pkt_size_system.l2.mem_side::total      1763072                       # Cumulative packet size per connected master and slave (bytes)
system.membus.pkt_size::total                 1763072                       # Cumulative packet size per connected master and slave (bytes)
system.membus.snoops                                0                       # Total snoops (count)
system.membus.snoopTraffic                          0                       # Total snoop traffic (bytes)
system.membus.snoop_fanout::samples             14298                       # Request fanout histogram
system.membus.snoop_fanout::mean                    0                       # Request fanout histogram
system.membus.snoop_fanout::stdev                   0                       # Request fanout histogram
system.membus.snoop_fanout::underflows              0      0.00%      0.00% # Request fanout histogram
system.membus.snoop_fanout::0                   14298    100.00%    100.00% # Request fanout histogram
system.membus.snoop_fanout::1                       0      0.00%    100.00% # Request fanout histogram
system.membus.snoop_fanout::overflows               0      0.00%    100.00% # Request fanout histogram
system.membus.snoop_fanout::min_value               0                       # Request fanout histogram
system.membus.snoop_fanout::max_value               0                       # Request fanout histogram
system.membus.snoop_fanout::total               14298                       # Request fanout histogram
system.membus.reqLayer8.occupancy            85191000                       # Layer occupancy (ticks)
system.membus.reqLayer8.utilization               0.6                       # Layer utilization (%)
system.membus.respLayer1.occupancy           76149250                       # Layer occupancy (ticks)
system.membus.respLayer1.utilization              0.5                       # Layer utilization (%)
system.tol2bus.snoop_filter.tot_requests        28623                       # Total number of requests made to the snoop filter.
system.tol2bus.snoop_filter.hit_single_requests        14311                       # Number of requests hitting in the snoop filter with a single holder of the requested data.
system.tol2bus.snoop_filter.hit_multi_requests            0                       # Number of requests hitting in the snoop filter with multiple (>1) holders of the requested data.
system.tol2bus.snoop_filter.tot_snoops              0                       # Total number of snoops made to the snoop filter.
system.tol2bus.snoop_filter.hit_single_snoops            0                       # Number of snoops hitting in the snoop filter with a single holder of the requested data.
system.tol2bus.snoop_filter.hit_multi_snoops            0                       # Number of snoops hitting in the snoop filter with multiple (>1) holders of the requested data.
system.tol2bus.pwrStateResidencyTicks::UNDEFINED  15267344125                       # Cumulative time (in ticks) in various power states
system.tol2bus.trans_dist::ReadResp             14311                       # Transaction distribution
system.tol2bus.trans_dist::WritebackDirty        26717                       # Transaction distribution
system.tol2bus.trans_dist::WritebackClean            1                       # Transaction distribution
system.tol2bus.trans_dist::CleanEvict            1891                       # Transaction distribution
system.tol2bus.trans_dist::ReadCleanReq             1                       # Transaction distribution
system.tol2bus.trans_dist::ReadSharedReq        14311                       # Transaction distribution
system.tol2bus.pkt_count_system.cpu0.icache.mem_side::system.l2.cpu_side            3                       # Packet count per connected master and slave (bytes)
system.tol2bus.pkt_count_system.cpu0.dcache.mem_side::system.l2.cpu_side        42931                       # Packet count per connected master and slave (bytes)
system.tol2bus.pkt_count::total                 42934                       # Packet count per connected master and slave (bytes)
system.tol2bus.pkt_size_system.cpu0.icache.mem_side::system.l2.cpu_side          128                       # Cumulative packet size per connected master and slave (bytes)
system.tol2bus.pkt_size_system.cpu0.dcache.mem_side::system.l2.cpu_side      1777664                       # Cumulative packet size per connected master and slave (bytes)
system.tol2bus.pkt_size::total                1777792                       # Cumulative packet size per connected master and slave (bytes)
system.tol2bus.snoops                           14298                       # Total snoops (count)
system.tol2bus.snoopTraffic                    848064                       # Total snoop traffic (bytes)
system.tol2bus.snoop_fanout::samples            28610                       # Request fanout histogram
system.tol2bus.snoop_fanout::mean                   0                       # Request fanout histogram
system.tol2bus.snoop_fanout::stdev                  0                       # Request fanout histogram
system.tol2bus.snoop_fanout::underflows             0      0.00%      0.00% # Request fanout histogram
system.tol2bus.snoop_fanout::0                  28610    100.00%    100.00% # Request fanout histogram
system.tol2bus.snoop_fanout::1                      0      0.00%    100.00% # Request fanout histogram
system.tol2bus.snoop_fanout::2                      0      0.00%    100.00% # Request fanout histogram
system.tol2bus.snoop_fanout::3                      0      0.00%    100.00% # Request fanout histogram
system.tol2bus.snoop_fanout::4                      0      0.00%    100.00% # Request fanout histogram
system.tol2bus.snoop_fanout::5                      0      0.00%    100.00% # Request fanout histogram
system.tol2bus.snoop_fanout::6                      0      0.00%    100.00% # Request fanout histogram
system.tol2bus.snoop_fanout::7                      0      0.00%    100.00% # Request fanout histogram
system.tol2bus.snoop_fanout::8                      0      0.00%    100.00% # Request fanout histogram
system.tol2bus.snoop_fanout::9                      0      0.00%    100.00% # Request fanout histogram
system.tol2bus.snoop_fanout::10                     0      0.00%    100.00% # Request fanout histogram
system.tol2bus.snoop_fanout::11                     0      0.00%    100.00% # Request fanout histogram
system.tol2bus.snoop_fanout::12                     0      0.00%    100.00% # Request fanout histogram
system.tol2bus.snoop_fanout::13                     0      0.00%    100.00% # Request fanout histogram
system.tol2bus.snoop_fanout::14                     0      0.00%    100.00% # Request fanout histogram
system.tol2bus.snoop_fanout::15                     0      0.00%    100.00% # Request fanout histogram
system.tol2bus.snoop_fanout::16                     0      0.00%    100.00% # Request fanout histogram
system.tol2bus.snoop_fanout::overflows              0      0.00%    100.00% # Request fanout histogram
system.tol2bus.snoop_fanout::min_value              0                       # Request fanout histogram
system.tol2bus.snoop_fanout::max_value              0                       # Request fanout histogram
system.tol2bus.snoop_fanout::total              28610                       # Request fanout histogram
system.tol2bus.reqLayer0.occupancy           27778500                       # Layer occupancy (ticks)
system.tol2bus.reqLayer0.utilization              0.2                       # Layer utilization (%)
system.tol2bus.respLayer0.occupancy              1500                       # Layer occupancy (ticks)
system.tol2bus.respLayer0.utilization             0.0                       # Layer utilization (%)
system.tol2bus.respLayer1.occupancy          21465000                       # Layer occupancy (ticks)
system.tol2bus.respLayer1.utilization             0.1                       # Layer utilization (%)

---------- End Simulation Statistics   ----------
