
---------- Begin Simulation Statistics ----------
sim_seconds                                  0.015267                       # Number of seconds simulated
sim_ticks                                 15267344125                       # Number of ticks simulated
final_tick                               8061157698000                       # Number of ticks from beginning of simulation (restored from checkpoints and never reset)
sim_freq                                 1000000000000                       # Frequency of simulated ticks
host_inst_rate                               42347599                       # Simulator instruction rate (inst/s)
host_op_rate                                 79182395                       # Simulator op (including micro ops) rate (op/s)
host_tick_rate                              103385634                       # Simulator tick rate (ticks/s)
host_mem_usage                                2332528                       # Number of bytes of host memory used
host_seconds                                   147.67                       # Real time elapsed on the host
sim_insts                                  6253627876                       # Number of instructions simulated
sim_ops                                   11693160402                       # Number of ops (including micro ops) simulated
system.voltage_domain.voltage                       1                       # Voltage in Volts
system.clk_domain.clock                          1000                       # Clock period in ticks
system.mem_ctrls.pwrStateResidencyTicks::UNDEFINED  15267344125                       # Cumulative time (in ticks) in various power states
system.mem_ctrls.bytes_read::cpu0.inst            448                       # Number of bytes read from this memory
system.mem_ctrls.bytes_read::cpu0.data            832                       # Number of bytes read from this memory
system.mem_ctrls.bytes_read::total               1280                       # Number of bytes read from this memory
system.mem_ctrls.bytes_inst_read::cpu0.inst          448                       # Number of instructions bytes read from this memory
system.mem_ctrls.bytes_inst_read::total           448                       # Number of instructions bytes read from this memory
system.mem_ctrls.num_reads::cpu0.inst               7                       # Number of read requests responded to by this memory
system.mem_ctrls.num_reads::cpu0.data              13                       # Number of read requests responded to by this memory
system.mem_ctrls.num_reads::total                  20                       # Number of read requests responded to by this memory
system.mem_ctrls.bw_read::cpu0.inst             29344                       # Total read bandwidth from this memory (bytes/s)
system.mem_ctrls.bw_read::cpu0.data             54495                       # Total read bandwidth from this memory (bytes/s)
system.mem_ctrls.bw_read::total                 83839                       # Total read bandwidth from this memory (bytes/s)
system.mem_ctrls.bw_inst_read::cpu0.inst        29344                       # Instruction read bandwidth from this memory (bytes/s)
system.mem_ctrls.bw_inst_read::total            29344                       # Instruction read bandwidth from this memory (bytes/s)
system.mem_ctrls.bw_total::cpu0.inst            29344                       # Total bandwidth to/from this memory (bytes/s)
system.mem_ctrls.bw_total::cpu0.data            54495                       # Total bandwidth to/from this memory (bytes/s)
system.mem_ctrls.bw_total::total                83839                       # Total bandwidth to/from this memory (bytes/s)
system.mem_ctrls.readReqs                          20                       # Number of read requests accepted
system.mem_ctrls.writeReqs                          0                       # Number of write requests accepted
system.mem_ctrls.readBursts                        20                       # Number of DRAM read bursts, including those serviced by the write queue
system.mem_ctrls.writeBursts                        0                       # Number of DRAM write bursts, including those merged in the write queue
system.mem_ctrls.bytesReadDRAM                   1280                       # Total number of bytes read from DRAM
system.mem_ctrls.bytesReadWrQ                       0                       # Total number of bytes read from write queue
system.mem_ctrls.bytesWritten                       0                       # Total number of bytes written to DRAM
system.mem_ctrls.bytesReadSys                    1280                       # Total read bytes from the system interface side
system.mem_ctrls.bytesWrittenSys                    0                       # Total written bytes from the system interface side
system.mem_ctrls.servicedByWrQ                      0                       # Number of DRAM read bursts serviced by the write queue
system.mem_ctrls.mergedWrBursts                     0                       # Number of DRAM write bursts merged with an existing one
system.mem_ctrls.neitherReadNorWriteReqs            0                       # Number of requests that are neither read nor write
system.mem_ctrls.perBankRdBursts::0                 0                       # Per bank write bursts
system.mem_ctrls.perBankRdBursts::1                 0                       # Per bank write bursts
system.mem_ctrls.perBankRdBursts::2                 3                       # Per bank write bursts
system.mem_ctrls.perBankRdBursts::3                 0                       # Per bank write bursts
system.mem_ctrls.perBankRdBursts::4                 1                       # Per bank write bursts
system.mem_ctrls.perBankRdBursts::5                 2                       # Per bank write bursts
system.mem_ctrls.perBankRdBursts::6                 8                       # Per bank write bursts
system.mem_ctrls.perBankRdBursts::7                 1                       # Per bank write bursts
system.mem_ctrls.perBankRdBursts::8                 2                       # Per bank write bursts
system.mem_ctrls.perBankRdBursts::9                 0                       # Per bank write bursts
system.mem_ctrls.perBankRdBursts::10                0                       # Per bank write bursts
system.mem_ctrls.perBankRdBursts::11                0                       # Per bank write bursts
system.mem_ctrls.perBankRdBursts::12                1                       # Per bank write bursts
system.mem_ctrls.perBankRdBursts::13                2                       # Per bank write bursts
system.mem_ctrls.perBankRdBursts::14                0                       # Per bank write bursts
system.mem_ctrls.perBankRdBursts::15                0                       # Per bank write bursts
system.mem_ctrls.perBankWrBursts::0                 0                       # Per bank write bursts
system.mem_ctrls.perBankWrBursts::1                 0                       # Per bank write bursts
system.mem_ctrls.perBankWrBursts::2                 0                       # Per bank write bursts
system.mem_ctrls.perBankWrBursts::3                 0                       # Per bank write bursts
system.mem_ctrls.perBankWrBursts::4                 0                       # Per bank write bursts
system.mem_ctrls.perBankWrBursts::5                 0                       # Per bank write bursts
system.mem_ctrls.perBankWrBursts::6                 0                       # Per bank write bursts
system.mem_ctrls.perBankWrBursts::7                 0                       # Per bank write bursts
system.mem_ctrls.perBankWrBursts::8                 0                       # Per bank write bursts
system.mem_ctrls.perBankWrBursts::9                 0                       # Per bank write bursts
system.mem_ctrls.perBankWrBursts::10                0                       # Per bank write bursts
system.mem_ctrls.perBankWrBursts::11                0                       # Per bank write bursts
system.mem_ctrls.perBankWrBursts::12                0                       # Per bank write bursts
system.mem_ctrls.perBankWrBursts::13                0                       # Per bank write bursts
system.mem_ctrls.perBankWrBursts::14                0                       # Per bank write bursts
system.mem_ctrls.perBankWrBursts::15                0                       # Per bank write bursts
system.mem_ctrls.numRdRetry                         0                       # Number of times read queue was full causing retry
system.mem_ctrls.numWrRetry                         0                       # Number of times write queue was full causing retry
system.mem_ctrls.totGap                   15115046500                       # Total gap between requests
system.mem_ctrls.readPktSize::0                     0                       # Read request sizes (log2)
system.mem_ctrls.readPktSize::1                     0                       # Read request sizes (log2)
system.mem_ctrls.readPktSize::2                     0                       # Read request sizes (log2)
system.mem_ctrls.readPktSize::3                     0                       # Read request sizes (log2)
system.mem_ctrls.readPktSize::4                     0                       # Read request sizes (log2)
system.mem_ctrls.readPktSize::5                     0                       # Read request sizes (log2)
system.mem_ctrls.readPktSize::6                    20                       # Read request sizes (log2)
system.mem_ctrls.writePktSize::0                    0                       # Write request sizes (log2)
system.mem_ctrls.writePktSize::1                    0                       # Write request sizes (log2)
system.mem_ctrls.writePktSize::2                    0                       # Write request sizes (log2)
system.mem_ctrls.writePktSize::3                    0                       # Write request sizes (log2)
system.mem_ctrls.writePktSize::4                    0                       # Write request sizes (log2)
system.mem_ctrls.writePktSize::5                    0                       # Write request sizes (log2)
system.mem_ctrls.writePktSize::6                    0                       # Write request sizes (log2)
system.mem_ctrls.rdQLenPdf::0                      17                       # What read queue length does an incoming req see
system.mem_ctrls.rdQLenPdf::1                       3                       # What read queue length does an incoming req see
system.mem_ctrls.rdQLenPdf::2                       0                       # What read queue length does an incoming req see
system.mem_ctrls.rdQLenPdf::3                       0                       # What read queue length does an incoming req see
system.mem_ctrls.rdQLenPdf::4                       0                       # What read queue length does an incoming req see
system.mem_ctrls.rdQLenPdf::5                       0                       # What read queue length does an incoming req see
system.mem_ctrls.rdQLenPdf::6                       0                       # What read queue length does an incoming req see
system.mem_ctrls.rdQLenPdf::7                       0                       # What read queue length does an incoming req see
system.mem_ctrls.rdQLenPdf::8                       0                       # What read queue length does an incoming req see
system.mem_ctrls.rdQLenPdf::9                       0                       # What read queue length does an incoming req see
system.mem_ctrls.rdQLenPdf::10                      0                       # What read queue length does an incoming req see
system.mem_ctrls.rdQLenPdf::11                      0                       # What read queue length does an incoming req see
system.mem_ctrls.rdQLenPdf::12                      0                       # What read queue length does an incoming req see
system.mem_ctrls.rdQLenPdf::13                      0                       # What read queue length does an incoming req see
system.mem_ctrls.rdQLenPdf::14                      0                       # What read queue length does an incoming req see
system.mem_ctrls.rdQLenPdf::15                      0                       # What read queue length does an incoming req see
system.mem_ctrls.rdQLenPdf::16                      0                       # What read queue length does an incoming req see
system.mem_ctrls.rdQLenPdf::17                      0                       # What read queue length does an incoming req see
system.mem_ctrls.rdQLenPdf::18                      0                       # What read queue length does an incoming req see
system.mem_ctrls.rdQLenPdf::19                      0                       # What read queue length does an incoming req see
system.mem_ctrls.rdQLenPdf::20                      0                       # What read queue length does an incoming req see
system.mem_ctrls.rdQLenPdf::21                      0                       # What read queue length does an incoming req see
system.mem_ctrls.rdQLenPdf::22                      0                       # What read queue length does an incoming req see
system.mem_ctrls.rdQLenPdf::23                      0                       # What read queue length does an incoming req see
system.mem_ctrls.rdQLenPdf::24                      0                       # What read queue length does an incoming req see
system.mem_ctrls.rdQLenPdf::25                      0                       # What read queue length does an incoming req see
system.mem_ctrls.rdQLenPdf::26                      0                       # What read queue length does an incoming req see
system.mem_ctrls.rdQLenPdf::27                      0                       # What read queue length does an incoming req see
system.mem_ctrls.rdQLenPdf::28                      0                       # What read queue length does an incoming req see
system.mem_ctrls.rdQLenPdf::29                      0                       # What read queue length does an incoming req see
system.mem_ctrls.rdQLenPdf::30                      0                       # What read queue length does an incoming req see
system.mem_ctrls.rdQLenPdf::31                      0                       # What read queue length does an incoming req see
system.mem_ctrls.wrQLenPdf::0                       0                       # What write queue length does an incoming req see
system.mem_ctrls.wrQLenPdf::1                       0                       # What write queue length does an incoming req see
system.mem_ctrls.wrQLenPdf::2                       0                       # What write queue length does an incoming req see
system.mem_ctrls.wrQLenPdf::3                       0                       # What write queue length does an incoming req see
system.mem_ctrls.wrQLenPdf::4                       0                       # What write queue length does an incoming req see
system.mem_ctrls.wrQLenPdf::5                       0                       # What write queue length does an incoming req see
system.mem_ctrls.wrQLenPdf::6                       0                       # What write queue length does an incoming req see
system.mem_ctrls.wrQLenPdf::7                       0                       # What write queue length does an incoming req see
system.mem_ctrls.wrQLenPdf::8                       0                       # What write queue length does an incoming req see
system.mem_ctrls.wrQLenPdf::9                       0                       # What write queue length does an incoming req see
system.mem_ctrls.wrQLenPdf::10                      0                       # What write queue length does an incoming req see
system.mem_ctrls.wrQLenPdf::11                      0                       # What write queue length does an incoming req see
system.mem_ctrls.wrQLenPdf::12                      0                       # What write queue length does an incoming req see
system.mem_ctrls.wrQLenPdf::13                      0                       # What write queue length does an incoming req see
system.mem_ctrls.wrQLenPdf::14                      0                       # What write queue length does an incoming req see
system.mem_ctrls.wrQLenPdf::15                      0                       # What write queue length does an incoming req see
system.mem_ctrls.wrQLenPdf::16                      0                       # What write queue length does an incoming req see
system.mem_ctrls.wrQLenPdf::17                      0                       # What write queue length does an incoming req see
system.mem_ctrls.wrQLenPdf::18                      0                       # What write queue length does an incoming req see
system.mem_ctrls.wrQLenPdf::19                      0                       # What write queue length does an incoming req see
system.mem_ctrls.wrQLenPdf::20                      0                       # What write queue length does an incoming req see
system.mem_ctrls.wrQLenPdf::21                      0                       # What write queue length does an incoming req see
system.mem_ctrls.wrQLenPdf::22                      0                       # What write queue length does an incoming req see
system.mem_ctrls.wrQLenPdf::23                      0                       # What write queue length does an incoming req see
system.mem_ctrls.wrQLenPdf::24                      0                       # What write queue length does an incoming req see
system.mem_ctrls.wrQLenPdf::25                      0                       # What write queue length does an incoming req see
system.mem_ctrls.wrQLenPdf::26                      0                       # What write queue length does an incoming req see
system.mem_ctrls.wrQLenPdf::27                      0                       # What write queue length does an incoming req see
system.mem_ctrls.wrQLenPdf::28                      0                       # What write queue length does an incoming req see
system.mem_ctrls.wrQLenPdf::29                      0                       # What write queue length does an incoming req see
system.mem_ctrls.wrQLenPdf::30                      0                       # What write queue length does an incoming req see
system.mem_ctrls.wrQLenPdf::31                      0                       # What write queue length does an incoming req see
system.mem_ctrls.wrQLenPdf::32                      0                       # What write queue length does an incoming req see
system.mem_ctrls.wrQLenPdf::33                      0                       # What write queue length does an incoming req see
system.mem_ctrls.wrQLenPdf::34                      0                       # What write queue length does an incoming req see
system.mem_ctrls.wrQLenPdf::35                      0                       # What write queue length does an incoming req see
system.mem_ctrls.wrQLenPdf::36                      0                       # What write queue length does an incoming req see
system.mem_ctrls.wrQLenPdf::37                      0                       # What write queue length does an incoming req see
system.mem_ctrls.wrQLenPdf::38                      0                       # What write queue length does an incoming req see
system.mem_ctrls.wrQLenPdf::39                      0                       # What write queue length does an incoming req see
system.mem_ctrls.wrQLenPdf::40                      0                       # What write queue length does an incoming req see
system.mem_ctrls.wrQLenPdf::41                      0                       # What write queue length does an incoming req see
system.mem_ctrls.wrQLenPdf::42                      0                       # What write queue length does an incoming req see
system.mem_ctrls.wrQLenPdf::43                      0                       # What write queue length does an incoming req see
system.mem_ctrls.wrQLenPdf::44                      0                       # What write queue length does an incoming req see
system.mem_ctrls.wrQLenPdf::45                      0                       # What write queue length does an incoming req see
system.mem_ctrls.wrQLenPdf::46                      0                       # What write queue length does an incoming req see
system.mem_ctrls.wrQLenPdf::47                      0                       # What write queue length does an incoming req see
system.mem_ctrls.wrQLenPdf::48                      0                       # What write queue length does an incoming req see
system.mem_ctrls.wrQLenPdf::49                      0                       # What write queue length does an incoming req see
system.mem_ctrls.wrQLenPdf::50                      0                       # What write queue length does an incoming req see
system.mem_ctrls.wrQLenPdf::51                      0                       # What write queue length does an incoming req see
system.mem_ctrls.wrQLenPdf::52                      0                       # What write queue length does an incoming req see
system.mem_ctrls.wrQLenPdf::53                      0                       # What write queue length does an incoming req see
system.mem_ctrls.wrQLenPdf::54                      0                       # What write queue length does an incoming req see
system.mem_ctrls.wrQLenPdf::55                      0                       # What write queue length does an incoming req see
system.mem_ctrls.wrQLenPdf::56                      0                       # What write queue length does an incoming req see
system.mem_ctrls.wrQLenPdf::57                      0                       # What write queue length does an incoming req see
system.mem_ctrls.wrQLenPdf::58                      0                       # What write queue length does an incoming req see
system.mem_ctrls.wrQLenPdf::59                      0                       # What write queue length does an incoming req see
system.mem_ctrls.wrQLenPdf::60                      0                       # What write queue length does an incoming req see
system.mem_ctrls.wrQLenPdf::61                      0                       # What write queue length does an incoming req see
system.mem_ctrls.wrQLenPdf::62                      0                       # What write queue length does an incoming req see
system.mem_ctrls.wrQLenPdf::63                      0                       # What write queue length does an incoming req see
system.mem_ctrls.bytesPerActivate::samples           16                       # Bytes accessed per row activation
system.mem_ctrls.bytesPerActivate::mean            80                       # Bytes accessed per row activation
system.mem_ctrls.bytesPerActivate::gmean    74.753030                       # Bytes accessed per row activation
system.mem_ctrls.bytesPerActivate::stdev    36.950417                       # Bytes accessed per row activation
system.mem_ctrls.bytesPerActivate::64-79           13     81.25%     81.25% # Bytes accessed per row activation
system.mem_ctrls.bytesPerActivate::128-143            2     12.50%     93.75% # Bytes accessed per row activation
system.mem_ctrls.bytesPerActivate::192-207            1      6.25%    100.00% # Bytes accessed per row activation
system.mem_ctrls.bytesPerActivate::total           16                       # Bytes accessed per row activation
system.mem_ctrls.totQLat                      8402250                       # Total ticks spent queuing
system.mem_ctrls.totMemAccLat                 8777250                       # Total ticks spent from burst creation until serviced by the DRAM
system.mem_ctrls.totBusLat                     100000                       # Total ticks spent in databus transfers
system.mem_ctrls.avgQLat                    420112.50                       # Average queueing delay per DRAM burst
system.mem_ctrls.avgBusLat                    5000.00                       # Average bus latency per DRAM burst
system.mem_ctrls.avgMemAccLat               438862.50                       # Average memory access latency per DRAM burst
system.mem_ctrls.avgRdBW                         0.08                       # Average DRAM read bandwidth in MiByte/s
system.mem_ctrls.avgWrBW                         0.00                       # Average achieved write bandwidth in MiByte/s
system.mem_ctrls.avgRdBWSys                      0.08                       # Average system read bandwidth in MiByte/s
system.mem_ctrls.avgWrBWSys                      0.00                       # Average system write bandwidth in MiByte/s
system.mem_ctrls.peakBW                      12800.00                       # Theoretical peak bandwidth in MiByte/s
system.mem_ctrls.busUtil                         0.00                       # Data bus utilization in percentage
system.mem_ctrls.busUtilRead                     0.00                       # Data bus utilization in percentage for reads
system.mem_ctrls.busUtilWrite                    0.00                       # Data bus utilization in percentage for writes
system.mem_ctrls.avgRdQLen                       1.13                       # Average read queue length when enqueuing
system.mem_ctrls.avgWrQLen                      18.00                       # Average write queue length when enqueuing
system.mem_ctrls.readRowHits                        4                       # Number of row buffer hits during reads
system.mem_ctrls.writeRowHits                       0                       # Number of row buffer hits during writes
system.mem_ctrls.readRowHitRate                 20.00                       # Row buffer hit rate for reads
system.mem_ctrls.writeRowHitRate                  nan                       # Row buffer hit rate for writes
system.mem_ctrls.avgGap                  755752325.00                       # Average gap between requests
system.mem_ctrls.pageHitRate                    20.00                       # Row buffer hit rate, read and write combined
system.mem_ctrls_0.actEnergy                    92820                       # Energy for activate commands per rank (pJ)
system.mem_ctrls_0.preEnergy                    49335                       # Energy for precharge commands per rank (pJ)
system.mem_ctrls_0.readEnergy                  107100                       # Energy for read commands per rank (pJ)
system.mem_ctrls_0.writeEnergy                      0                       # Energy for write commands per rank (pJ)
system.mem_ctrls_0.refreshEnergy         20897760.000000                       # Energy for refresh commands per rank (pJ)
system.mem_ctrls_0.actBackEnergy              4052130                       # Energy for active background per rank (pJ)
system.mem_ctrls_0.preBackEnergy              1409760                       # Energy for precharge background per rank (pJ)
system.mem_ctrls_0.actPowerDownEnergy        40193550                       # Energy for active power-down per rank (pJ)
system.mem_ctrls_0.prePowerDownEnergy        32361600                       # Energy for precharge power-down per rank (pJ)
system.mem_ctrls_0.selfRefreshEnergy       3625842840                       # Energy for self refresh per rank (pJ)
system.mem_ctrls_0.totalEnergy             3725006895                       # Total energy per rank (pJ)
system.mem_ctrls_0.averagePower            243.985258                       # Core power per rank (mW)
system.mem_ctrls_0.totalIdleTime          14905720625                       # Total Idle time Per DRAM Rank
system.mem_ctrls_0.memoryStateTime::IDLE      2976000                       # Time in different power states
system.mem_ctrls_0.memoryStateTime::REF       8906000                       # Time in different power states
system.mem_ctrls_0.memoryStateTime::SREF  15082364375                       # Time in different power states
system.mem_ctrls_0.memoryStateTime::PRE_PDN     84271500                       # Time in different power states
system.mem_ctrls_0.memoryStateTime::ACT        682500                       # Time in different power states
system.mem_ctrls_0.memoryStateTime::ACT_PDN     88143750                       # Time in different power states
system.mem_ctrls_1.actEnergy                    21420                       # Energy for activate commands per rank (pJ)
system.mem_ctrls_1.preEnergy                    11385                       # Energy for precharge commands per rank (pJ)
system.mem_ctrls_1.readEnergy                   35700                       # Energy for read commands per rank (pJ)
system.mem_ctrls_1.writeEnergy                      0                       # Energy for write commands per rank (pJ)
system.mem_ctrls_1.refreshEnergy         3687840.000000                       # Energy for refresh commands per rank (pJ)
system.mem_ctrls_1.actBackEnergy               725040                       # Energy for active background per rank (pJ)
system.mem_ctrls_1.preBackEnergy               253920                       # Energy for precharge background per rank (pJ)
system.mem_ctrls_1.actPowerDownEnergy         6817770                       # Energy for active power-down per rank (pJ)
system.mem_ctrls_1.prePowerDownEnergy         5765280                       # Energy for precharge power-down per rank (pJ)
system.mem_ctrls_1.selfRefreshEnergy       3657535080                       # Energy for self refresh per rank (pJ)
system.mem_ctrls_1.totalEnergy             3674853435                       # Total energy per rank (pJ)
system.mem_ctrls_1.averagePower            240.700243                       # Core power per rank (mW)
system.mem_ctrls_1.totalIdleTime           6282057375                       # Total Idle time Per DRAM Rank
system.mem_ctrls_1.memoryStateTime::IDLE       540000                       # Time in different power states
system.mem_ctrls_1.memoryStateTime::REF       1572000                       # Time in different power states
system.mem_ctrls_1.memoryStateTime::SREF  15235127125                       # Time in different power states
system.mem_ctrls_1.memoryStateTime::PRE_PDN     15013000                       # Time in different power states
system.mem_ctrls_1.memoryStateTime::ACT        140250                       # Time in different power states
system.mem_ctrls_1.memoryStateTime::ACT_PDN     14951750                       # Time in different power states
system.pwrStateResidencyTicks::UNDEFINED  15267344125                       # Cumulative time (in ticks) in various power states
system.cpu0.branchPred.lookups                6059973                       # Number of BP lookups
system.cpu0.branchPred.condPredicted          6059973                       # Number of conditional branches predicted
system.cpu0.branchPred.condIncorrect            30356                       # Number of conditional branches incorrect
system.cpu0.branchPred.BTBLookups             6022344                       # Number of BTB lookups
system.cpu0.branchPred.BTBHits                      0                       # Number of BTB hits
system.cpu0.branchPred.BTBCorrect                   0                       # Number of correct BTB predictions (this stat may not work properly.
system.cpu0.branchPred.BTBHitPct             0.000000                       # BTB Hit Percentage
system.cpu0.branchPred.usedRAS                  17414                       # Number of times the RAS was used to get a target.
system.cpu0.branchPred.RASInCorrect              3677                       # Number of incorrect RAS predictions.
system.cpu0.branchPred.indirectLookups        6022344                       # Number of indirect predictor lookups.
system.cpu0.branchPred.indirectHits           5857709                       # Number of indirect target hits.
system.cpu0.branchPred.indirectMisses          164635                       # Number of indirect misses.
system.cpu0.branchPredindirectMispredicted        21443                       # Number of mispredicted indirect branches.
system.cpu_voltage_domain.voltage                   1                       # Voltage in Volts
system.cpu_clk_domain.clock                       500                       # Clock period in ticks
system.cpu0.dtb.walker.pwrStateResidencyTicks::UNDEFINED  15267344125                       # Cumulative time (in ticks) in various power states
system.cpu0.dtb.rdAccesses                    1765787                       # TLB accesses on read requests
system.cpu0.dtb.wrAccesses                    6001230                       # TLB accesses on write requests
system.cpu0.dtb.rdMisses                         3596                       # TLB misses on read requests
system.cpu0.dtb.wrMisses                        12451                       # TLB misses on write requests
system.cpu0.apic_clk_domain.clock                8000                       # Clock period in ticks
system.cpu0.interrupts.pwrStateResidencyTicks::UNDEFINED  15267344125                       # Cumulative time (in ticks) in various power states
system.cpu0.itb.walker.pwrStateResidencyTicks::UNDEFINED  15267344125                       # Cumulative time (in ticks) in various power states
system.cpu0.itb.rdAccesses                          0                       # TLB accesses on read requests
system.cpu0.itb.wrAccesses                     235949                       # TLB accesses on write requests
system.cpu0.itb.rdMisses                            0                       # TLB misses on read requests
system.cpu0.itb.wrMisses                          475                       # TLB misses on write requests
system.cpu0.workload.numSyscalls                  267                       # Number of system calls
system.cpu0.pwrStateResidencyTicks::ON    15267344125                       # Cumulative time (in ticks) in various power states
system.cpu0.numCycles                        30534689                       # number of cpu cycles simulated
system.cpu0.numWorkItemsStarted                     0                       # number of work items this cpu started
system.cpu0.numWorkItemsCompleted                   0                       # number of work items this cpu completed
system.cpu0.fetch.icacheStallCycles            291550                       # Number of cycles fetch is stalled on an Icache miss
system.cpu0.fetch.Insts                      26687400                       # Number of instructions fetch has processed
system.cpu0.fetch.Branches                    6059973                       # Number of branches that fetch encountered
system.cpu0.fetch.predictedBranches           5875123                       # Number of branches that fetch has predicted taken
system.cpu0.fetch.Cycles                     30205898                       # Number of cycles fetch has run and was not squashing or blocked
system.cpu0.fetch.SquashCycles                  62224                       # Number of cycles fetch has spent squashing
system.cpu0.fetch.TlbCycles                         1                       # Number of cycles fetch has spent waiting for tlb
system.cpu0.fetch.MiscStallCycles                  84                       # Number of cycles fetch has spent waiting on interrupts, or bad addresses, or out of MSHRs
system.cpu0.fetch.PendingTrapStallCycles          467                       # Number of stall cycles due to pending traps
system.cpu0.fetch.CacheLines                   235836                       # Number of cache lines fetched
system.cpu0.fetch.IcacheSquashes                 8999                       # Number of outstanding Icache misses that were squashed
system.cpu0.fetch.ItlbSquashes                      1                       # Number of outstanding ITLB misses that were squashed
system.cpu0.fetch.rateDist::samples          30529112                       # Number of instructions fetched each cycle (Total)
system.cpu0.fetch.rateDist::mean             1.765570                       # Number of instructions fetched each cycle (Total)
system.cpu0.fetch.rateDist::stdev            3.189793                       # Number of instructions fetched each cycle (Total)
system.cpu0.fetch.rateDist::underflows              0      0.00%      0.00% # Number of instructions fetched each cycle (Total)
system.cpu0.fetch.rateDist::0                22625589     74.11%     74.11% # Number of instructions fetched each cycle (Total)
system.cpu0.fetch.rateDist::1                  201873      0.66%     74.77% # Number of instructions fetched each cycle (Total)
system.cpu0.fetch.rateDist::2                  213881      0.70%     75.47% # Number of instructions fetched each cycle (Total)
system.cpu0.fetch.rateDist::3                 1151944      3.77%     79.25% # Number of instructions fetched each cycle (Total)
system.cpu0.fetch.rateDist::4                  133989      0.44%     79.69% # Number of instructions fetched each cycle (Total)
system.cpu0.fetch.rateDist::5                   40347      0.13%     79.82% # Number of instructions fetched each cycle (Total)
system.cpu0.fetch.rateDist::6                   43781      0.14%     79.96% # Number of instructions fetched each cycle (Total)
system.cpu0.fetch.rateDist::7                  126224      0.41%     80.37% # Number of instructions fetched each cycle (Total)
system.cpu0.fetch.rateDist::8                 5991484     19.63%    100.00% # Number of instructions fetched each cycle (Total)
system.cpu0.fetch.rateDist::overflows               0      0.00%    100.00% # Number of instructions fetched each cycle (Total)
system.cpu0.fetch.rateDist::min_value               0                       # Number of instructions fetched each cycle (Total)
system.cpu0.fetch.rateDist::max_value               8                       # Number of instructions fetched each cycle (Total)
system.cpu0.fetch.rateDist::total            30529112                       # Number of instructions fetched each cycle (Total)
system.cpu0.fetch.branchRate                 0.198462                       # Number of branch fetches per cycle
system.cpu0.fetch.rate                       0.874003                       # Number of inst fetches per cycle
system.cpu0.decode.IdleCycles                 1916873                       # Number of cycles decode is idle
system.cpu0.decode.BlockedCycles             21814349                       # Number of cycles decode is blocked
system.cpu0.decode.RunCycles                  3010136                       # Number of cycles decode is running
system.cpu0.decode.UnblockCycles              3756642                       # Number of cycles decode is unblocking
system.cpu0.decode.SquashCycles                 31112                       # Number of cycles decode is squashing
system.cpu0.decode.DecodedInsts              53653922                       # Number of instructions handled by decode
system.cpu0.rename.SquashCycles                 31112                       # Number of cycles rename is squashing
system.cpu0.rename.IdleCycles                 3169050                       # Number of cycles rename is idle
system.cpu0.rename.BlockCycles                 182549                       # Number of cycles rename is blocking
system.cpu0.rename.serializeStallCycles         11541                       # count of cycles rename stalled for serializing inst
system.cpu0.rename.RunCycles                  5510408                       # Number of cycles rename is running
system.cpu0.rename.UnblockCycles             21624452                       # Number of cycles rename is unblocking
system.cpu0.rename.RenamedInsts              53504594                       # Number of instructions processed by rename
system.cpu0.rename.ROBFullEvents                 3319                       # Number of times rename has blocked due to ROB full
system.cpu0.rename.IQFullEvents                 80544                       # Number of times rename has blocked due to IQ full
system.cpu0.rename.LQFullEvents                 23910                       # Number of times rename has blocked due to LQ full
system.cpu0.rename.SQFullEvents              20295373                       # Number of times rename has blocked due to SQ full
system.cpu0.rename.RenamedOperands           68319712                       # Number of destination operands rename has renamed
system.cpu0.rename.RenameLookups            113007677                       # Number of register rename lookups that rename has made
system.cpu0.rename.int_rename_lookups        61537977                       # Number of integer rename lookups
system.cpu0.rename.fp_rename_lookups          1500886                       # Number of floating rename lookups
system.cpu0.rename.CommittedMaps             67083958                       # Number of HB maps that are committed
system.cpu0.rename.UndoneMaps                 1235806                       # Number of HB maps that are undone due to squashing
system.cpu0.rename.serializingInsts               620                       # count of serializing insts renamed
system.cpu0.rename.tempSerializingInsts           654                       # count of temporary serializing insts renamed
system.cpu0.rename.skidInsts                 22465222                       # count of insts added to the skid buffer
system.cpu0.memDep0.insertedLoads             1816767                       # Number of loads inserted to the mem dependence unit.
system.cpu0.memDep0.insertedStores            6039343                       # Number of stores inserted to the mem dependence unit.
system.cpu0.memDep0.conflictingLoads           103248                       # Number of conflicting loads.
system.cpu0.memDep0.conflictingStores          104673                       # Number of conflicting stores.
system.cpu0.iq.iqInstsAdded                  53212405                       # Number of instructions added to the IQ (excludes non-spec)
system.cpu0.iq.iqNonSpecInstsAdded               3749                       # Number of non-speculative instructions added to the IQ
system.cpu0.iq.iqInstsIssued                 52920644                       # Number of instructions issued
system.cpu0.iq.iqSquashedInstsIssued             9011                       # Number of squashed instructions issued
system.cpu0.iq.iqSquashedInstsExamined         793500                       # Number of squashed instructions iterated over during squash; mainly for profiling
system.cpu0.iq.iqSquashedOperandsExamined      1172928                       # Number of squashed operands that are examined and possibly removed from graph
system.cpu0.iq.iqSquashedNonSpecRemoved          3182                       # Number of squashed non-spec instructions that were removed
system.cpu0.iq.issued_per_cycle::samples     30529112                       # Number of insts issued each cycle
system.cpu0.iq.issued_per_cycle::mean        1.733449                       # Number of insts issued each cycle
system.cpu0.iq.issued_per_cycle::stdev       2.230200                       # Number of insts issued each cycle
system.cpu0.iq.issued_per_cycle::underflows            0      0.00%      0.00% # Number of insts issued each cycle
system.cpu0.iq.issued_per_cycle::0           16219759     53.13%     53.13% # Number of insts issued each cycle
system.cpu0.iq.issued_per_cycle::1            2268588      7.43%     60.56% # Number of insts issued each cycle
system.cpu0.iq.issued_per_cycle::2            2494778      8.17%     68.73% # Number of insts issued each cycle
system.cpu0.iq.issued_per_cycle::3            1641907      5.38%     74.11% # Number of insts issued each cycle
system.cpu0.iq.issued_per_cycle::4            1527846      5.00%     79.11% # Number of insts issued each cycle
system.cpu0.iq.issued_per_cycle::5            4765020     15.61%     94.72% # Number of insts issued each cycle
system.cpu0.iq.issued_per_cycle::6             604192      1.98%     96.70% # Number of insts issued each cycle
system.cpu0.iq.issued_per_cycle::7             881033      2.89%     99.59% # Number of insts issued each cycle
system.cpu0.iq.issued_per_cycle::8             125989      0.41%    100.00% # Number of insts issued each cycle
system.cpu0.iq.issued_per_cycle::overflows            0      0.00%    100.00% # Number of insts issued each cycle
system.cpu0.iq.issued_per_cycle::min_value            0                       # Number of insts issued each cycle
system.cpu0.iq.issued_per_cycle::max_value            8                       # Number of insts issued each cycle
system.cpu0.iq.issued_per_cycle::total       30529112                       # Number of insts issued each cycle
system.cpu0.iq.fu_full::No_OpClass                  0      0.00%      0.00% # attempts to use FU when none available
system.cpu0.iq.fu_full::IntAlu                 372869     94.56%     94.56% # attempts to use FU when none available
system.cpu0.iq.fu_full::IntMult                     0      0.00%     94.56% # attempts to use FU when none available
system.cpu0.iq.fu_full::IntDiv                      0      0.00%     94.56% # attempts to use FU when none available
system.cpu0.iq.fu_full::FloatAdd                 2039      0.52%     95.07% # attempts to use FU when none available
system.cpu0.iq.fu_full::FloatCmp                    0      0.00%     95.07% # attempts to use FU when none available
system.cpu0.iq.fu_full::FloatCvt                    0      0.00%     95.07% # attempts to use FU when none available
system.cpu0.iq.fu_full::FloatMult                   0      0.00%     95.07% # attempts to use FU when none available
system.cpu0.iq.fu_full::FloatMultAcc                0      0.00%     95.07% # attempts to use FU when none available
system.cpu0.iq.fu_full::FloatDiv                    0      0.00%     95.07% # attempts to use FU when none available
system.cpu0.iq.fu_full::FloatMisc                   0      0.00%     95.07% # attempts to use FU when none available
system.cpu0.iq.fu_full::FloatSqrt                   0      0.00%     95.07% # attempts to use FU when none available
system.cpu0.iq.fu_full::SimdAdd                     0      0.00%     95.07% # attempts to use FU when none available
system.cpu0.iq.fu_full::SimdAddAcc                  0      0.00%     95.07% # attempts to use FU when none available
system.cpu0.iq.fu_full::SimdAlu                     0      0.00%     95.07% # attempts to use FU when none available
system.cpu0.iq.fu_full::SimdCmp                     0      0.00%     95.07% # attempts to use FU when none available
system.cpu0.iq.fu_full::SimdCvt                     0      0.00%     95.07% # attempts to use FU when none available
system.cpu0.iq.fu_full::SimdMisc                    0      0.00%     95.07% # attempts to use FU when none available
system.cpu0.iq.fu_full::SimdMult                    0      0.00%     95.07% # attempts to use FU when none available
system.cpu0.iq.fu_full::SimdMultAcc                 0      0.00%     95.07% # attempts to use FU when none available
system.cpu0.iq.fu_full::SimdShift                   0      0.00%     95.07% # attempts to use FU when none available
system.cpu0.iq.fu_full::SimdShiftAcc                0      0.00%     95.07% # attempts to use FU when none available
system.cpu0.iq.fu_full::SimdSqrt                    0      0.00%     95.07% # attempts to use FU when none available
system.cpu0.iq.fu_full::SimdFloatAdd                0      0.00%     95.07% # attempts to use FU when none available
system.cpu0.iq.fu_full::SimdFloatAlu                0      0.00%     95.07% # attempts to use FU when none available
system.cpu0.iq.fu_full::SimdFloatCmp                0      0.00%     95.07% # attempts to use FU when none available
system.cpu0.iq.fu_full::SimdFloatCvt                0      0.00%     95.07% # attempts to use FU when none available
system.cpu0.iq.fu_full::SimdFloatDiv                0      0.00%     95.07% # attempts to use FU when none available
system.cpu0.iq.fu_full::SimdFloatMisc               0      0.00%     95.07% # attempts to use FU when none available
system.cpu0.iq.fu_full::SimdFloatMult               0      0.00%     95.07% # attempts to use FU when none available
system.cpu0.iq.fu_full::SimdFloatMultAcc            0      0.00%     95.07% # attempts to use FU when none available
system.cpu0.iq.fu_full::SimdFloatSqrt               0      0.00%     95.07% # attempts to use FU when none available
system.cpu0.iq.fu_full::MemRead                  3482      0.88%     95.96% # attempts to use FU when none available
system.cpu0.iq.fu_full::MemWrite                 1001      0.25%     96.21% # attempts to use FU when none available
system.cpu0.iq.fu_full::FloatMemRead            13921      3.53%     99.74% # attempts to use FU when none available
system.cpu0.iq.fu_full::FloatMemWrite            1019      0.26%    100.00% # attempts to use FU when none available
system.cpu0.iq.fu_full::IprAccess                   0      0.00%    100.00% # attempts to use FU when none available
system.cpu0.iq.fu_full::InstPrefetch                0      0.00%    100.00% # attempts to use FU when none available
system.cpu0.iq.FU_type_0::No_OpClass            20243      0.04%      0.04% # Type of FU issued
system.cpu0.iq.FU_type_0::IntAlu             44711081     84.49%     84.53% # Type of FU issued
system.cpu0.iq.FU_type_0::IntMult                 461      0.00%     84.53% # Type of FU issued
system.cpu0.iq.FU_type_0::IntDiv                 1386      0.00%     84.53% # Type of FU issued
system.cpu0.iq.FU_type_0::FloatAdd             400196      0.76%     85.28% # Type of FU issued
system.cpu0.iq.FU_type_0::FloatCmp                  0      0.00%     85.28% # Type of FU issued
system.cpu0.iq.FU_type_0::FloatCvt                  0      0.00%     85.28% # Type of FU issued
system.cpu0.iq.FU_type_0::FloatMult                 0      0.00%     85.28% # Type of FU issued
system.cpu0.iq.FU_type_0::FloatMultAcc              0      0.00%     85.28% # Type of FU issued
system.cpu0.iq.FU_type_0::FloatDiv                  0      0.00%     85.28% # Type of FU issued
system.cpu0.iq.FU_type_0::FloatMisc                 0      0.00%     85.28% # Type of FU issued
system.cpu0.iq.FU_type_0::FloatSqrt                 0      0.00%     85.28% # Type of FU issued
system.cpu0.iq.FU_type_0::SimdAdd                   0      0.00%     85.28% # Type of FU issued
system.cpu0.iq.FU_type_0::SimdAddAcc                0      0.00%     85.28% # Type of FU issued
system.cpu0.iq.FU_type_0::SimdAlu                   0      0.00%     85.28% # Type of FU issued
system.cpu0.iq.FU_type_0::SimdCmp                   0      0.00%     85.28% # Type of FU issued
system.cpu0.iq.FU_type_0::SimdCvt                   0      0.00%     85.28% # Type of FU issued
system.cpu0.iq.FU_type_0::SimdMisc                  0      0.00%     85.28% # Type of FU issued
system.cpu0.iq.FU_type_0::SimdMult                  0      0.00%     85.28% # Type of FU issued
system.cpu0.iq.FU_type_0::SimdMultAcc               0      0.00%     85.28% # Type of FU issued
system.cpu0.iq.FU_type_0::SimdShift                 0      0.00%     85.28% # Type of FU issued
system.cpu0.iq.FU_type_0::SimdShiftAcc              0      0.00%     85.28% # Type of FU issued
system.cpu0.iq.FU_type_0::SimdSqrt                  0      0.00%     85.28% # Type of FU issued
system.cpu0.iq.FU_type_0::SimdFloatAdd              0      0.00%     85.28% # Type of FU issued
system.cpu0.iq.FU_type_0::SimdFloatAlu              0      0.00%     85.28% # Type of FU issued
system.cpu0.iq.FU_type_0::SimdFloatCmp              0      0.00%     85.28% # Type of FU issued
system.cpu0.iq.FU_type_0::SimdFloatCvt              0      0.00%     85.28% # Type of FU issued
system.cpu0.iq.FU_type_0::SimdFloatDiv              0      0.00%     85.28% # Type of FU issued
system.cpu0.iq.FU_type_0::SimdFloatMisc             0      0.00%     85.28% # Type of FU issued
system.cpu0.iq.FU_type_0::SimdFloatMult             0      0.00%     85.28% # Type of FU issued
system.cpu0.iq.FU_type_0::SimdFloatMultAcc            0      0.00%     85.28% # Type of FU issued
system.cpu0.iq.FU_type_0::SimdFloatSqrt             0      0.00%     85.28% # Type of FU issued
system.cpu0.iq.FU_type_0::MemRead             1547212      2.92%     88.21% # Type of FU issued
system.cpu0.iq.FU_type_0::MemWrite            5814386     10.99%     99.20% # Type of FU issued
system.cpu0.iq.FU_type_0::FloatMemRead         231835      0.44%     99.63% # Type of FU issued
system.cpu0.iq.FU_type_0::FloatMemWrite        193844      0.37%    100.00% # Type of FU issued
system.cpu0.iq.FU_type_0::IprAccess                 0      0.00%    100.00% # Type of FU issued
system.cpu0.iq.FU_type_0::InstPrefetch              0      0.00%    100.00% # Type of FU issued
system.cpu0.iq.FU_type_0::total              52920644                       # Type of FU issued
system.cpu0.iq.rate                          1.733132                       # Inst issue rate
system.cpu0.iq.fu_busy_cnt                     394331                       # FU busy when requested
system.cpu0.iq.fu_busy_rate                  0.007451                       # FU busy rate (busy events/executed inst)
system.cpu0.iq.int_inst_queue_reads         134926655                       # Number of integer instruction queue reads
system.cpu0.iq.int_inst_queue_writes         52993953                       # Number of integer instruction queue writes
system.cpu0.iq.int_inst_queue_wakeup_accesses     51907621                       # Number of integer instruction queue wakeup accesses
system.cpu0.iq.fp_inst_queue_reads            1847094                       # Number of floating instruction queue reads
system.cpu0.iq.fp_inst_queue_writes           1016631                       # Number of floating instruction queue writes
system.cpu0.iq.fp_inst_queue_wakeup_accesses       905399                       # Number of floating instruction queue wakeup accesses
system.cpu0.iq.vec_inst_queue_reads                 0                       # Number of vector instruction queue reads
system.cpu0.iq.vec_inst_queue_writes                0                       # Number of vector instruction queue writes
system.cpu0.iq.vec_inst_queue_wakeup_accesses            0                       # Number of vector instruction queue wakeup accesses
system.cpu0.iq.int_alu_accesses              52362883                       # Number of integer alu accesses
system.cpu0.iq.fp_alu_accesses                 931849                       # Number of floating point alu accesses
system.cpu0.iq.vec_alu_accesses                     0                       # Number of vector alu accesses
system.cpu0.iew.lsq.thread0.forwLoads            7656                       # Number of loads that had data forwarded from stores
system.cpu0.iew.lsq.thread0.invAddrLoads            0                       # Number of loads ignored due to an invalid address
system.cpu0.iew.lsq.thread0.squashedLoads       110771                       # Number of loads squashed
system.cpu0.iew.lsq.thread0.ignoredResponses          155                       # Number of memory responses ignored because the instruction is squashed
system.cpu0.iew.lsq.thread0.memOrderViolation          979                       # Number of memory ordering violations
system.cpu0.iew.lsq.thread0.squashedStores        60762                       # Number of stores squashed
system.cpu0.iew.lsq.thread0.invAddrSwpfs            0                       # Number of software prefetches ignored due to an invalid address
system.cpu0.iew.lsq.thread0.blockedLoads            0                       # Number of blocked loads due to partial load-store forwarding
system.cpu0.iew.lsq.thread0.rescheduledLoads           62                       # Number of loads that were rescheduled
system.cpu0.iew.lsq.thread0.cacheBlocked          525                       # Number of times an access to memory failed due to the cache being blocked
system.cpu0.iew.iewIdleCycles                       0                       # Number of cycles IEW is idle
system.cpu0.iew.iewSquashCycles                 31112                       # Number of cycles IEW is squashing
system.cpu0.iew.iewBlockCycles                  95485                       # Number of cycles IEW is blocking
system.cpu0.iew.iewUnblockCycles                76321                       # Number of cycles IEW is unblocking
system.cpu0.iew.iewDispatchedInsts           53216154                       # Number of instructions dispatched to IQ
system.cpu0.iew.iewDispSquashedInsts             3242                       # Number of squashed instructions skipped by dispatch
system.cpu0.iew.iewDispLoadInsts              1816767                       # Number of dispatched load instructions
system.cpu0.iew.iewDispStoreInsts             6039343                       # Number of dispatched store instructions
system.cpu0.iew.iewDispNonSpecInsts              1618                       # Number of dispatched non-speculative instructions
system.cpu0.iew.iewIQFullEvents                   607                       # Number of times the IQ has become full, causing a stall
system.cpu0.iew.iewLSQFullEvents                75600                       # Number of times the LSQ has become full, causing a stall
system.cpu0.iew.memOrderViolationEvents           979                       # Number of memory order violations
system.cpu0.iew.predictedTakenIncorrect          8357                       # Number of branches that were predicted taken incorrectly
system.cpu0.iew.predictedNotTakenIncorrect        29637                       # Number of branches that were predicted not taken incorrectly
system.cpu0.iew.branchMispredicts               37994                       # Number of branch mispredicts detected at execute
system.cpu0.iew.iewExecutedInsts             52846913                       # Number of executed instructions
system.cpu0.iew.iewExecLoadInsts              1765003                       # Number of load instructions executed
system.cpu0.iew.iewExecSquashedInsts            73738                       # Number of squashed instructions skipped in execute
system.cpu0.iew.exec_swp                            0                       # number of swp insts executed
system.cpu0.iew.exec_nop                            0                       # number of nop insts executed
system.cpu0.iew.exec_refs                     7766168                       # number of memory reference insts executed
system.cpu0.iew.exec_branches                 5940735                       # Number of branches executed
system.cpu0.iew.exec_stores                   6001165                       # Number of stores executed
system.cpu0.iew.exec_rate                    1.730717                       # Inst execution rate
system.cpu0.iew.wb_sent                      52827924                       # cumulative count of insts sent to commit
system.cpu0.iew.wb_count                     52813020                       # cumulative count of insts written-back
system.cpu0.iew.wb_producers                 38637414                       # num instructions producing a value
system.cpu0.iew.wb_consumers                 53829868                       # num instructions consuming a value
system.cpu0.iew.wb_rate                      1.729607                       # insts written-back per cycle
system.cpu0.iew.wb_fanout                    0.717769                       # average fanout of values written-back
system.cpu0.commit.commitSquashedInsts         793976                       # The number of squashed insts skipped by commit
system.cpu0.commit.commitNonSpecStalls            567                       # The number of times commit has been forced to stall to communicate backwards
system.cpu0.commit.branchMispredicts            30384                       # The number of times a branch was mispredicted
system.cpu0.commit.committed_per_cycle::samples     30405317                       # Number of insts commited each cycle
system.cpu0.commit.committed_per_cycle::mean     1.724129                       # Number of insts commited each cycle
system.cpu0.commit.committed_per_cycle::stdev     2.316274                       # Number of insts commited each cycle
system.cpu0.commit.committed_per_cycle::underflows            0      0.00%      0.00% # Number of insts commited each cycle
system.cpu0.commit.committed_per_cycle::0     16532167     54.37%     54.37% # Number of insts commited each cycle
system.cpu0.commit.committed_per_cycle::1      1676695      5.51%     59.89% # Number of insts commited each cycle
system.cpu0.commit.committed_per_cycle::2      1518916      5.00%     64.88% # Number of insts commited each cycle
system.cpu0.commit.committed_per_cycle::3      5217247     17.16%     82.04% # Number of insts commited each cycle
system.cpu0.commit.committed_per_cycle::4       361103      1.19%     83.23% # Number of insts commited each cycle
system.cpu0.commit.committed_per_cycle::5      3110959     10.23%     93.46% # Number of insts commited each cycle
system.cpu0.commit.committed_per_cycle::6       367680      1.21%     94.67% # Number of insts commited each cycle
system.cpu0.commit.committed_per_cycle::7       113270      0.37%     95.04% # Number of insts commited each cycle
system.cpu0.commit.committed_per_cycle::8      1507280      4.96%    100.00% # Number of insts commited each cycle
system.cpu0.commit.committed_per_cycle::overflows            0      0.00%    100.00% # Number of insts commited each cycle
system.cpu0.commit.committed_per_cycle::min_value            0                       # Number of insts commited each cycle
system.cpu0.commit.committed_per_cycle::max_value            8                       # Number of insts commited each cycle
system.cpu0.commit.committed_per_cycle::total     30405317                       # Number of insts commited each cycle
system.cpu0.commit.committedInsts            25863159                       # Number of instructions committed
system.cpu0.commit.committedOps              52422685                       # Number of ops (including micro ops) committed
system.cpu0.commit.swp_count                        0                       # Number of s/w prefetches committed
system.cpu0.commit.refs                       7684583                       # Number of memory references committed
system.cpu0.commit.loads                      1705999                       # Number of loads committed
system.cpu0.commit.membars                        200                       # Number of memory barriers committed
system.cpu0.commit.branches                   5910531                       # Number of branches committed
system.cpu0.commit.vec_insts                        0                       # Number of committed Vector instructions.
system.cpu0.commit.fp_insts                    888117                       # Number of committed floating point instructions.
system.cpu0.commit.int_insts                 51950690                       # Number of committed integer instructions.
system.cpu0.commit.function_calls                5559                       # Number of function calls committed.
system.cpu0.commit.op_class_0::No_OpClass        11301      0.02%      0.02% # Class of committed instruction
system.cpu0.commit.op_class_0::IntAlu        44334645     84.57%     84.59% # Class of committed instruction
system.cpu0.commit.op_class_0::IntMult            355      0.00%     84.59% # Class of committed instruction
system.cpu0.commit.op_class_0::IntDiv            1154      0.00%     84.60% # Class of committed instruction
system.cpu0.commit.op_class_0::FloatAdd        390647      0.75%     85.34% # Class of committed instruction
system.cpu0.commit.op_class_0::FloatCmp             0      0.00%     85.34% # Class of committed instruction
system.cpu0.commit.op_class_0::FloatCvt             0      0.00%     85.34% # Class of committed instruction
system.cpu0.commit.op_class_0::FloatMult            0      0.00%     85.34% # Class of committed instruction
system.cpu0.commit.op_class_0::FloatMultAcc            0      0.00%     85.34% # Class of committed instruction
system.cpu0.commit.op_class_0::FloatDiv             0      0.00%     85.34% # Class of committed instruction
system.cpu0.commit.op_class_0::FloatMisc            0      0.00%     85.34% # Class of committed instruction
system.cpu0.commit.op_class_0::FloatSqrt            0      0.00%     85.34% # Class of committed instruction
system.cpu0.commit.op_class_0::SimdAdd              0      0.00%     85.34% # Class of committed instruction
system.cpu0.commit.op_class_0::SimdAddAcc            0      0.00%     85.34% # Class of committed instruction
system.cpu0.commit.op_class_0::SimdAlu              0      0.00%     85.34% # Class of committed instruction
system.cpu0.commit.op_class_0::SimdCmp              0      0.00%     85.34% # Class of committed instruction
system.cpu0.commit.op_class_0::SimdCvt              0      0.00%     85.34% # Class of committed instruction
system.cpu0.commit.op_class_0::SimdMisc             0      0.00%     85.34% # Class of committed instruction
system.cpu0.commit.op_class_0::SimdMult             0      0.00%     85.34% # Class of committed instruction
system.cpu0.commit.op_class_0::SimdMultAcc            0      0.00%     85.34% # Class of committed instruction
system.cpu0.commit.op_class_0::SimdShift            0      0.00%     85.34% # Class of committed instruction
system.cpu0.commit.op_class_0::SimdShiftAcc            0      0.00%     85.34% # Class of committed instruction
system.cpu0.commit.op_class_0::SimdSqrt             0      0.00%     85.34% # Class of committed instruction
system.cpu0.commit.op_class_0::SimdFloatAdd            0      0.00%     85.34% # Class of committed instruction
system.cpu0.commit.op_class_0::SimdFloatAlu            0      0.00%     85.34% # Class of committed instruction
system.cpu0.commit.op_class_0::SimdFloatCmp            0      0.00%     85.34% # Class of committed instruction
system.cpu0.commit.op_class_0::SimdFloatCvt            0      0.00%     85.34% # Class of committed instruction
system.cpu0.commit.op_class_0::SimdFloatDiv            0      0.00%     85.34% # Class of committed instruction
system.cpu0.commit.op_class_0::SimdFloatMisc            0      0.00%     85.34% # Class of committed instruction
system.cpu0.commit.op_class_0::SimdFloatMult            0      0.00%     85.34% # Class of committed instruction
system.cpu0.commit.op_class_0::SimdFloatMultAcc            0      0.00%     85.34% # Class of committed instruction
system.cpu0.commit.op_class_0::SimdFloatSqrt            0      0.00%     85.34% # Class of committed instruction
system.cpu0.commit.op_class_0::MemRead        1484902      2.83%     88.17% # Class of committed instruction
system.cpu0.commit.op_class_0::MemWrite       5786876     11.04%     99.21% # Class of committed instruction
system.cpu0.commit.op_class_0::FloatMemRead       221097      0.42%     99.63% # Class of committed instruction
system.cpu0.commit.op_class_0::FloatMemWrite       191708      0.37%    100.00% # Class of committed instruction
system.cpu0.commit.op_class_0::IprAccess            0      0.00%    100.00% # Class of committed instruction
system.cpu0.commit.op_class_0::InstPrefetch            0      0.00%    100.00% # Class of committed instruction
system.cpu0.commit.op_class_0::total         52422685                       # Class of committed instruction
system.cpu0.commit.bw_lim_events              1507280                       # number cycles where commit BW limit reached
system.cpu0.rob.rob_reads                    82114698                       # The number of ROB reads
system.cpu0.rob.rob_writes                  106559583                       # The number of ROB writes
system.cpu0.timesIdled                            854                       # Number of times that the entire CPU went into an idle state and unscheduled itself
system.cpu0.idleCycles                           5577                       # Total number of cycles that the CPU has spent unscheduled due to idling
system.cpu0.committedInsts                   25863159                       # Number of Instructions Simulated
system.cpu0.committedOps                     52422685                       # Number of Ops (including micro ops) Simulated
system.cpu0.cpi                              1.180625                       # CPI: Cycles Per Instruction
system.cpu0.cpi_total                        1.180625                       # CPI: Total CPI of All Threads
system.cpu0.ipc                              0.847009                       # IPC: Instructions Per Cycle
system.cpu0.ipc_total                        0.847009                       # IPC: Total IPC of All Threads
system.cpu0.int_regfile_reads                60478587                       # number of integer regfile reads
system.cpu0.int_regfile_writes               40157240                       # number of integer regfile writes
system.cpu0.fp_regfile_reads                  1395826                       # number of floating regfile reads
system.cpu0.fp_regfile_writes                  708179                       # number of floating regfile writes
system.cpu0.cc_regfile_reads                 29635513                       # number of cc regfile reads
system.cpu0.cc_regfile_writes                26667383                       # number of cc regfile writes
system.cpu0.misc_regfile_reads               19681261                       # number of misc regfile reads
system.cpu0.dcache.tags.pwrStateResidencyTicks::UNDEFINED  15267344125                       # Cumulative time (in ticks) in various power states
system.cpu0.dcache.tags.replacements           733331                       # number of replacements
system.cpu0.dcache.tags.tagsinuse                1024                       # Cycle average of tags in use
system.cpu0.dcache.tags.total_refs            7100924                       # Total number of references to valid blocks.
system.cpu0.dcache.tags.sampled_refs           733331                       # Sample count of references to valid blocks.
system.cpu0.dcache.tags.avg_refs             9.683109                       # Average number of references to valid blocks.
system.cpu0.dcache.tags.warmup_cycle                0                       # Cycle when the warmup percentage was hit.
system.cpu0.dcache.tags.occ_blocks::cpu0.data         1024                       # Average occupied blocks per requestor
system.cpu0.dcache.tags.occ_percent::cpu0.data            1                       # Average percentage of cache occupancy
system.cpu0.dcache.tags.occ_percent::total            1                       # Average percentage of cache occupancy
system.cpu0.dcache.tags.occ_task_id_blocks::1024         1024                       # Occupied blocks per task id
system.cpu0.dcache.tags.age_task_id_blocks_1024::0          577                       # Occupied blocks per task id
system.cpu0.dcache.tags.age_task_id_blocks_1024::1          447                       # Occupied blocks per task id
system.cpu0.dcache.tags.occ_task_id_percent::1024            1                       # Percentage of cache occupancy per task id
system.cpu0.dcache.tags.tag_accesses         31667531                       # Number of tag accesses
system.cpu0.dcache.tags.data_accesses        31667531                       # Number of data accesses
system.cpu0.dcache.pwrStateResidencyTicks::UNDEFINED  15267344125                       # Cumulative time (in ticks) in various power states
system.cpu0.dcache.ReadReq_hits::cpu0.data      1741310                       # number of ReadReq hits
system.cpu0.dcache.ReadReq_hits::total        1741310                       # number of ReadReq hits
system.cpu0.dcache.WriteReq_hits::cpu0.data      5251892                       # number of WriteReq hits
system.cpu0.dcache.WriteReq_hits::total       5251892                       # number of WriteReq hits
system.cpu0.dcache.demand_hits::cpu0.data      6993202                       # number of demand (read+write) hits
system.cpu0.dcache.demand_hits::total         6993202                       # number of demand (read+write) hits
system.cpu0.dcache.overall_hits::cpu0.data      6993202                       # number of overall hits
system.cpu0.dcache.overall_hits::total        6993202                       # number of overall hits
system.cpu0.dcache.ReadReq_misses::cpu0.data        13608                       # number of ReadReq misses
system.cpu0.dcache.ReadReq_misses::total        13608                       # number of ReadReq misses
system.cpu0.dcache.WriteReq_misses::cpu0.data       726740                       # number of WriteReq misses
system.cpu0.dcache.WriteReq_misses::total       726740                       # number of WriteReq misses
system.cpu0.dcache.demand_misses::cpu0.data       740348                       # number of demand (read+write) misses
system.cpu0.dcache.demand_misses::total        740348                       # number of demand (read+write) misses
system.cpu0.dcache.overall_misses::cpu0.data       740348                       # number of overall misses
system.cpu0.dcache.overall_misses::total       740348                       # number of overall misses
system.cpu0.dcache.ReadReq_miss_latency::cpu0.data    165194000                       # number of ReadReq miss cycles
system.cpu0.dcache.ReadReq_miss_latency::total    165194000                       # number of ReadReq miss cycles
system.cpu0.dcache.WriteReq_miss_latency::cpu0.data   9451194999                       # number of WriteReq miss cycles
system.cpu0.dcache.WriteReq_miss_latency::total   9451194999                       # number of WriteReq miss cycles
system.cpu0.dcache.demand_miss_latency::cpu0.data   9616388999                       # number of demand (read+write) miss cycles
system.cpu0.dcache.demand_miss_latency::total   9616388999                       # number of demand (read+write) miss cycles
system.cpu0.dcache.overall_miss_latency::cpu0.data   9616388999                       # number of overall miss cycles
system.cpu0.dcache.overall_miss_latency::total   9616388999                       # number of overall miss cycles
system.cpu0.dcache.ReadReq_accesses::cpu0.data      1754918                       # number of ReadReq accesses(hits+misses)
system.cpu0.dcache.ReadReq_accesses::total      1754918                       # number of ReadReq accesses(hits+misses)
system.cpu0.dcache.WriteReq_accesses::cpu0.data      5978632                       # number of WriteReq accesses(hits+misses)
system.cpu0.dcache.WriteReq_accesses::total      5978632                       # number of WriteReq accesses(hits+misses)
system.cpu0.dcache.demand_accesses::cpu0.data      7733550                       # number of demand (read+write) accesses
system.cpu0.dcache.demand_accesses::total      7733550                       # number of demand (read+write) accesses
system.cpu0.dcache.overall_accesses::cpu0.data      7733550                       # number of overall (read+write) accesses
system.cpu0.dcache.overall_accesses::total      7733550                       # number of overall (read+write) accesses
system.cpu0.dcache.ReadReq_miss_rate::cpu0.data     0.007754                       # miss rate for ReadReq accesses
system.cpu0.dcache.ReadReq_miss_rate::total     0.007754                       # miss rate for ReadReq accesses
system.cpu0.dcache.WriteReq_miss_rate::cpu0.data     0.121556                       # miss rate for WriteReq accesses
system.cpu0.dcache.WriteReq_miss_rate::total     0.121556                       # miss rate for WriteReq accesses
system.cpu0.dcache.demand_miss_rate::cpu0.data     0.095732                       # miss rate for demand accesses
system.cpu0.dcache.demand_miss_rate::total     0.095732                       # miss rate for demand accesses
system.cpu0.dcache.overall_miss_rate::cpu0.data     0.095732                       # miss rate for overall accesses
system.cpu0.dcache.overall_miss_rate::total     0.095732                       # miss rate for overall accesses
system.cpu0.dcache.ReadReq_avg_miss_latency::cpu0.data 12139.476778                       # average ReadReq miss latency
system.cpu0.dcache.ReadReq_avg_miss_latency::total 12139.476778                       # average ReadReq miss latency
system.cpu0.dcache.WriteReq_avg_miss_latency::cpu0.data 13004.919227                       # average WriteReq miss latency
system.cpu0.dcache.WriteReq_avg_miss_latency::total 13004.919227                       # average WriteReq miss latency
system.cpu0.dcache.demand_avg_miss_latency::cpu0.data 12989.011923                       # average overall miss latency
system.cpu0.dcache.demand_avg_miss_latency::total 12989.011923                       # average overall miss latency
system.cpu0.dcache.overall_avg_miss_latency::cpu0.data 12989.011923                       # average overall miss latency
system.cpu0.dcache.overall_avg_miss_latency::total 12989.011923                       # average overall miss latency
system.cpu0.dcache.blocked_cycles::no_mshrs         2225                       # number of cycles access was blocked
system.cpu0.dcache.blocked_cycles::no_targets            0                       # number of cycles access was blocked
system.cpu0.dcache.blocked::no_mshrs              277                       # number of cycles access was blocked
system.cpu0.dcache.blocked::no_targets              0                       # number of cycles access was blocked
system.cpu0.dcache.avg_blocked_cycles::no_mshrs     8.032491                       # average number of cycles each access was blocked
system.cpu0.dcache.avg_blocked_cycles::no_targets          nan                       # average number of cycles each access was blocked
system.cpu0.dcache.writebacks::writebacks       729092                       # number of writebacks
system.cpu0.dcache.writebacks::total           729092                       # number of writebacks
system.cpu0.dcache.ReadReq_mshr_hits::cpu0.data         6995                       # number of ReadReq MSHR hits
system.cpu0.dcache.ReadReq_mshr_hits::total         6995                       # number of ReadReq MSHR hits
system.cpu0.dcache.WriteReq_mshr_hits::cpu0.data           19                       # number of WriteReq MSHR hits
system.cpu0.dcache.WriteReq_mshr_hits::total           19                       # number of WriteReq MSHR hits
system.cpu0.dcache.demand_mshr_hits::cpu0.data         7014                       # number of demand (read+write) MSHR hits
system.cpu0.dcache.demand_mshr_hits::total         7014                       # number of demand (read+write) MSHR hits
system.cpu0.dcache.overall_mshr_hits::cpu0.data         7014                       # number of overall MSHR hits
system.cpu0.dcache.overall_mshr_hits::total         7014                       # number of overall MSHR hits
system.cpu0.dcache.ReadReq_mshr_misses::cpu0.data         6613                       # number of ReadReq MSHR misses
system.cpu0.dcache.ReadReq_mshr_misses::total         6613                       # number of ReadReq MSHR misses
system.cpu0.dcache.WriteReq_mshr_misses::cpu0.data       726721                       # number of WriteReq MSHR misses
system.cpu0.dcache.WriteReq_mshr_misses::total       726721                       # number of WriteReq MSHR misses
system.cpu0.dcache.demand_mshr_misses::cpu0.data       733334                       # number of demand (read+write) MSHR misses
system.cpu0.dcache.demand_mshr_misses::total       733334                       # number of demand (read+write) MSHR misses
system.cpu0.dcache.overall_mshr_misses::cpu0.data       733334                       # number of overall MSHR misses
system.cpu0.dcache.overall_mshr_misses::total       733334                       # number of overall MSHR misses
system.cpu0.dcache.ReadReq_mshr_miss_latency::cpu0.data     85606500                       # number of ReadReq MSHR miss cycles
system.cpu0.dcache.ReadReq_mshr_miss_latency::total     85606500                       # number of ReadReq MSHR miss cycles
system.cpu0.dcache.WriteReq_mshr_miss_latency::cpu0.data   8724264999                       # number of WriteReq MSHR miss cycles
[...]
system.l2.overall_accesses::total              736179                       # number of overall (read+write) accesses
system.l2.ReadExReq_miss_rate::cpu0.data     0.000008                       # miss rate for ReadExReq accesses
system.l2.ReadExReq_miss_rate::total         0.000008                       # miss rate for ReadExReq accesses
system.l2.ReadCleanReq_miss_rate::cpu0.inst     0.002459                       # miss rate for ReadCleanReq accesses
system.l2.ReadCleanReq_miss_rate::total      0.002459                       # miss rate for ReadCleanReq accesses
system.l2.ReadSharedReq_miss_rate::cpu0.data     0.001059                       # miss rate for ReadSharedReq accesses
system.l2.ReadSharedReq_miss_rate::total     0.001059                       # miss rate for ReadSharedReq accesses
system.l2.demand_miss_rate::cpu0.inst        0.002459                       # miss rate for demand accesses
system.l2.demand_miss_rate::cpu0.data        0.000018                       # miss rate for demand accesses
system.l2.demand_miss_rate::total            0.000027                       # miss rate for demand accesses
system.l2.overall_miss_rate::cpu0.inst       0.002459                       # miss rate for overall accesses
system.l2.overall_miss_rate::cpu0.data       0.000018                       # miss rate for overall accesses
system.l2.overall_miss_rate::total           0.000027                       # miss rate for overall accesses
system.l2.ReadExReq_avg_miss_latency::cpu0.data       526500                       # average ReadExReq miss latency
system.l2.ReadExReq_avg_miss_latency::total       526500                       # average ReadExReq miss latency
system.l2.ReadCleanReq_avg_miss_latency::cpu0.inst 341714.285714                       # average ReadCleanReq miss latency
system.l2.ReadCleanReq_avg_miss_latency::total 341714.285714                       # average ReadCleanReq miss latency
system.l2.ReadSharedReq_avg_miss_latency::cpu0.data 607785.714286                       # average ReadSharedReq miss latency
system.l2.ReadSharedReq_avg_miss_latency::total 607785.714286                       # average ReadSharedReq miss latency
system.l2.demand_avg_miss_latency::cpu0.inst 341714.285714                       # average overall miss latency
system.l2.demand_avg_miss_latency::cpu0.data 570269.230769                       # average overall miss latency
system.l2.demand_avg_miss_latency::total       490275                       # average overall miss latency
system.l2.overall_avg_miss_latency::cpu0.inst 341714.285714                       # average overall miss latency
system.l2.overall_avg_miss_latency::cpu0.data 570269.230769                       # average overall miss latency
system.l2.overall_avg_miss_latency::total       490275                       # average overall miss latency
system.l2.blocked_cycles::no_mshrs                  0                       # number of cycles access was blocked
system.l2.blocked_cycles::no_targets                0                       # number of cycles access was blocked
system.l2.blocked::no_mshrs                         0                       # number of cycles access was blocked
system.l2.blocked::no_targets                       0                       # number of cycles access was blocked
system.l2.avg_blocked_cycles::no_mshrs            nan                       # average number of cycles each access was blocked
system.l2.avg_blocked_cycles::no_targets          nan                       # average number of cycles each access was blocked
system.l2.ReadExReq_mshr_misses::cpu0.data            6                       # number of ReadExReq MSHR misses
system.l2.ReadExReq_mshr_misses::total              6                       # number of ReadExReq MSHR misses
system.l2.ReadCleanReq_mshr_misses::cpu0.inst            7                       # number of ReadCleanReq MSHR misses
system.l2.ReadCleanReq_mshr_misses::total            7                       # number of ReadCleanReq MSHR misses
system.l2.ReadSharedReq_mshr_misses::cpu0.data            7                       # number of ReadSharedReq MSHR misses
system.l2.ReadSharedReq_mshr_misses::total            7                       # number of ReadSharedReq MSHR misses
system.l2.demand_mshr_misses::cpu0.inst             7                       # number of demand (read+write) MSHR misses
system.l2.demand_mshr_misses::cpu0.data            13                       # number of demand (read+write) MSHR misses
system.l2.demand_mshr_misses::total                20                       # number of demand (read+write) MSHR misses
system.l2.overall_mshr_misses::cpu0.inst            7                       # number of overall MSHR misses
system.l2.overall_mshr_misses::cpu0.data           13                       # number of overall MSHR misses
system.l2.overall_mshr_misses::total               20                       # number of overall MSHR misses
system.l2.ReadExReq_mshr_miss_latency::cpu0.data      3099000                       # number of ReadExReq MSHR miss cycles
system.l2.ReadExReq_mshr_miss_latency::total      3099000                       # number of ReadExReq MSHR miss cycles
system.l2.ReadCleanReq_mshr_miss_latency::cpu0.inst      2322000                       # number of ReadCleanReq MSHR miss cycles
system.l2.ReadCleanReq_mshr_miss_latency::total      2322000                       # number of ReadCleanReq MSHR miss cycles
system.l2.ReadSharedReq_mshr_miss_latency::cpu0.data      4184500                       # number of ReadSharedReq MSHR miss cycles
system.l2.ReadSharedReq_mshr_miss_latency::total      4184500                       # number of ReadSharedReq MSHR miss cycles
system.l2.demand_mshr_miss_latency::cpu0.inst      2322000                       # number of demand (read+write) MSHR miss cycles
system.l2.demand_mshr_miss_latency::cpu0.data      7283500                       # number of demand (read+write) MSHR miss cycles
system.l2.demand_mshr_miss_latency::total      9605500                       # number of demand (read+write) MSHR miss cycles
system.l2.overall_mshr_miss_latency::cpu0.inst      2322000                       # number of overall MSHR miss cycles
system.l2.overall_mshr_miss_latency::cpu0.data      7283500                       # number of overall MSHR miss cycles
system.l2.overall_mshr_miss_latency::total      9605500                       # number of overall MSHR miss cycles
system.l2.ReadExReq_mshr_miss_rate::cpu0.data     0.000008                       # mshr miss rate for ReadExReq accesses
system.l2.ReadExReq_mshr_miss_rate::total     0.000008                       # mshr miss rate for ReadExReq accesses
system.l2.ReadCleanReq_mshr_miss_rate::cpu0.inst     0.002459                       # mshr miss rate for ReadCleanReq accesses
system.l2.ReadCleanReq_mshr_miss_rate::total     0.002459                       # mshr miss rate for ReadCleanReq accesses
system.l2.ReadSharedReq_mshr_miss_rate::cpu0.data     0.001059                       # mshr miss rate for ReadSharedReq accesses
system.l2.ReadSharedReq_mshr_miss_rate::total     0.001059                       # mshr miss rate for ReadSharedReq accesses
system.l2.demand_mshr_miss_rate::cpu0.inst     0.002459                       # mshr miss rate for demand accesses
system.l2.demand_mshr_miss_rate::cpu0.data     0.000018                       # mshr miss rate for demand accesses
system.l2.demand_mshr_miss_rate::total       0.000027                       # mshr miss rate for demand accesses
system.l2.overall_mshr_miss_rate::cpu0.inst     0.002459                       # mshr miss rate for overall accesses
system.l2.overall_mshr_miss_rate::cpu0.data     0.000018                       # mshr miss rate for overall accesses
system.l2.overall_mshr_miss_rate::total      0.000027                       # mshr miss rate for overall accesses
system.l2.ReadExReq_avg_mshr_miss_latency::cpu0.data       516500                       # average ReadExReq mshr miss latency
system.l2.ReadExReq_avg_mshr_miss_latency::total       516500                       # average ReadExReq mshr miss latency
system.l2.ReadCleanReq_avg_mshr_miss_latency::cpu0.inst 331714.285714                       # average ReadCleanReq mshr miss latency
system.l2.ReadCleanReq_avg_mshr_miss_latency::total 331714.285714                       # average ReadCleanReq mshr miss latency
system.l2.ReadSharedReq_avg_mshr_miss_latency::cpu0.data 597785.714286                       # average ReadSharedReq mshr miss latency
system.l2.ReadSharedReq_avg_mshr_miss_latency::total 597785.714286                       # average ReadSharedReq mshr miss latency
system.l2.demand_avg_mshr_miss_latency::cpu0.inst 331714.285714                       # average overall mshr miss latency
system.l2.demand_avg_mshr_miss_latency::cpu0.data 560269.230769                       # average overall mshr miss latency
system.l2.demand_avg_mshr_miss_latency::total       480275                       # average overall mshr miss latency
system.l2.overall_avg_mshr_miss_latency::cpu0.inst 331714.285714                       # average overall mshr miss latency
system.l2.overall_avg_mshr_miss_latency::cpu0.data 560269.230769                       # average overall mshr miss latency
system.l2.overall_avg_mshr_miss_latency::total       480275                       # average overall mshr miss latency
system.membus.snoop_filter.tot_requests            43                       # Total number of requests made to the snoop filter.
system.membus.snoop_filter.hit_single_requests           25                       # Number of requests hitting in the snoop filter with a single holder of the requested data.
system.membus.snoop_filter.hit_multi_requests            0                       # Number of requests hitting in the snoop filter with multiple (>1) holders of the requested data.
system.membus.snoop_filter.tot_snoops               0                       # Total number of snoops made to the snoop filter.
system.membus.snoop_filter.hit_single_snoops            0                       # Number of snoops hitting in the snoop filter with a single holder of the requested data.
system.membus.snoop_filter.hit_multi_snoops            0                       # Number of snoops hitting in the snoop filter with multiple (>1) holders of the requested data.
system.membus.pwrStateResidencyTicks::UNDEFINED  15267344125                       # Cumulative time (in ticks) in various power states
system.membus.trans_dist::ReadResp                 14                       # Transaction distribution
system.membus.trans_dist::CleanEvict               23                       # Transaction distribution
system.membus.trans_dist::ReadExReq                 6                       # Transaction distribution
system.membus.trans_dist::ReadExResp                6                       # Transaction distribution
system.membus.trans_dist::ReadSharedReq            14                       # Transaction distribution
system.membus.pkt_count_system.l2.mem_side::system.mem_ctrls.port           63                       # Packet count per connected master and slave (bytes)
system.membus.pkt_count_system.l2.mem_side::total           63                       # Packet count per connected master and slave (bytes)
system.membus.pkt_count::total                     63                       # Packet count per connected master and slave (bytes)
system.membus.pkt_size_system.l2.mem_side::system.mem_ctrls.port         1280                       # Cumulative packet size per connected master and slave (bytes)
system.membus.pkt_size_system.l2.mem_side::total         1280                       # Cumulative packet size per connected master and slave (bytes)
system.membus.pkt_size::total                    1280                       # Cumulative packet size per connected master and slave (bytes)
system.membus.snoops                                0                       # Total snoops (count)
system.membus.snoopTraffic                          0                       # Total snoop traffic (bytes)
system.membus.snoop_fanout::samples                20                       # Request fanout histogram
system.membus.snoop_fanout::mean                    0                       # Request fanout histogram
system.membus.snoop_fanout::stdev                   0                       # Request fanout histogram
system.membus.snoop_fanout::underflows              0      0.00%      0.00% # Request fanout histogram
system.membus.snoop_fanout::0                      20    100.00%    100.00% # Request fanout histogram
system.membus.snoop_fanout::1                       0      0.00%    100.00% # Request fanout histogram
system.membus.snoop_fanout::overflows               0      0.00%    100.00% # Request fanout histogram
system.membus.snoop_fanout::min_value               0                       # Request fanout histogram
system.membus.snoop_fanout::max_value               0                       # Request fanout histogram
system.membus.snoop_fanout::total                  20                       # Request fanout histogram
system.membus.reqLayer8.occupancy               50000                       # Layer occupancy (ticks)
system.membus.reqLayer8.utilization               0.0                       # Layer utilization (%)
system.membus.respLayer1.occupancy             107750                       # Layer occupancy (ticks)
system.membus.respLayer1.utilization              0.0                       # Layer utilization (%)
system.tol2bus.snoop_filter.tot_requests      1472361                       # Total number of requests made to the snoop filter.
system.tol2bus.snoop_filter.hit_single_requests       736178                       # Number of requests hitting in the snoop filter with a single holder of the requested data.
system.tol2bus.snoop_filter.hit_multi_requests          318                       # Number of requests hitting in the snoop filter with multiple (>1) holders of the requested data.
system.tol2bus.snoop_filter.tot_snoops              0                       # Total number of snoops made to the snoop filter.
system.tol2bus.snoop_filter.hit_single_snoops            0                       # Number of snoops hitting in the snoop filter with a single holder of the requested data.
system.tol2bus.snoop_filter.hit_multi_snoops            0                       # Number of snoops hitting in the snoop filter with multiple (>1) holders of the requested data.
system.tol2bus.pwrStateResidencyTicks::UNDEFINED  15267344125                       # Cumulative time (in ticks) in various power states
system.tol2bus.trans_dist::ReadResp              9461                       # Transaction distribution
system.tol2bus.trans_dist::WritebackDirty       729092                       # Transaction distribution
system.tol2bus.trans_dist::WritebackClean         2846                       # Transaction distribution
system.tol2bus.trans_dist::CleanEvict            4262                       # Transaction distribution
system.tol2bus.trans_dist::UpgradeReq               3                       # Transaction distribution
system.tol2bus.trans_dist::UpgradeResp              3                       # Transaction distribution
system.tol2bus.trans_dist::ReadExReq           726720                       # Transaction distribution
system.tol2bus.trans_dist::ReadExResp          726719                       # Transaction distribution
system.tol2bus.trans_dist::ReadCleanReq          2849                       # Transaction distribution
system.tol2bus.trans_dist::ReadSharedReq         6612                       # Transaction distribution
system.tol2bus.pkt_count_system.cpu0.icache.mem_side::system.l2.cpu_side         8542                       # Packet count per connected master and slave (bytes)
system.tol2bus.pkt_count_system.cpu0.dcache.mem_side::system.l2.cpu_side      2200000                       # Packet count per connected master and slave (bytes)
system.tol2bus.pkt_count::total               2208542                       # Packet count per connected master and slave (bytes)
system.tol2bus.pkt_size_system.cpu0.icache.mem_side::system.l2.cpu_side       364352                       # Cumulative packet size per connected master and slave (bytes)
system.tol2bus.pkt_size_system.cpu0.dcache.mem_side::system.l2.cpu_side     93595072                       # Cumulative packet size per connected master and slave (bytes)
system.tol2bus.pkt_size::total               93959424                       # Cumulative packet size per connected master and slave (bytes)
system.tol2bus.snoops                              25                       # Total snoops (count)
system.tol2bus.snoopTraffic                       128                       # Total snoop traffic (bytes)
system.tol2bus.snoop_fanout::samples           736207                       # Request fanout histogram
system.tol2bus.snoop_fanout::mean            0.000432                       # Request fanout histogram
system.tol2bus.snoop_fanout::stdev           0.020779                       # Request fanout histogram
system.tol2bus.snoop_fanout::underflows             0      0.00%      0.00% # Request fanout histogram
system.tol2bus.snoop_fanout::0                 735889     99.96%     99.96% # Request fanout histogram
system.tol2bus.snoop_fanout::1                    318      0.04%    100.00% # Request fanout histogram
system.tol2bus.snoop_fanout::2                      0      0.00%    100.00% # Request fanout histogram
system.tol2bus.snoop_fanout::3                      0      0.00%    100.00% # Request fanout histogram
system.tol2bus.snoop_fanout::4                      0      0.00%    100.00% # Request fanout histogram
system.tol2bus.snoop_fanout::5                      0      0.00%    100.00% # Request fanout histogram
system.tol2bus.snoop_fanout::6                      0      0.00%    100.00% # Request fanout histogram
system.tol2bus.snoop_fanout::7                      0      0.00%    100.00% # Request fanout histogram
system.tol2bus.snoop_fanout::8                      0      0.00%    100.00% # Request fanout histogram
system.tol2bus.snoop_fanout::9                      0      0.00%    100.00% # Request fanout histogram
system.tol2bus.snoop_fanout::10                     0      0.00%    100.00% # Request fanout histogram
system.tol2bus.snoop_fanout::11                     0      0.00%    100.00% # Request fanout histogram
system.tol2bus.snoop_fanout::12                     0      0.00%    100.00% # Request fanout histogram
system.tol2bus.snoop_fanout::13                     0      0.00%    100.00% # Request fanout histogram
system.tol2bus.snoop_fanout::14                     0      0.00%    100.00% # Request fanout histogram
system.tol2bus.snoop_fanout::15                     0      0.00%    100.00% # Request fanout histogram
system.tol2bus.snoop_fanout::16                     0      0.00%    100.00% # Request fanout histogram
system.tol2bus.snoop_fanout::overflows              0      0.00%    100.00% # Request fanout histogram
system.tol2bus.snoop_fanout::min_value              0                       # Request fanout histogram
system.tol2bus.snoop_fanout::max_value              1                       # Request fanout histogram
system.tol2bus.snoop_fanout::total             736207                       # Request fanout histogram
system.tol2bus.reqLayer0.occupancy         1468118500                       # Layer occupancy (ticks)
system.tol2bus.reqLayer0.utilization              9.6                       # Layer utilization (%)
system.tol2bus.respLayer0.occupancy           4291963                       # Layer occupancy (ticks)
system.tol2bus.respLayer0.utilization             0.0                       # Layer utilization (%)
system.tol2bus.respLayer1.occupancy        1099998000                       # Layer occupancy (ticks)
system.tol2bus.respLayer1.utilization             7.2                       # Layer utilization (%)

---------- End Simulation Statistics   ----------
