
---------- Begin Simulation Statistics ----------
sim_seconds                                  0.015267                       # Number of seconds simulated
sim_ticks                                 15267344125                       # Number of ticks simulated
final_tick                               7832147536125                       # Number of ticks from beginning of simulation (restored from checkpoints and never reset)
sim_freq                                 1000000000000                       # Frequency of simulated ticks
host_inst_rate                              139227705                       # Simulator instruction rate (inst/s)
host_op_rate                                259658651                       # Simulator op (including micro ops) rate (op/s)
host_tick_rate                              349400660                       # Simulator tick rate (ticks/s)
host_mem_usage                                2332528                       # Number of bytes of host memory used
host_seconds                                    43.70                       # Real time elapsed on the host
sim_insts                                  6083664577                       # Number of instructions simulated
sim_ops                                   11345992335                       # Number of ops (including micro ops) simulated
system.voltage_domain.voltage                       1                       # Voltage in Volts
system.clk_domain.clock                          1000                       # Clock period in ticks
system.mem_ctrls.pwrStateResidencyTicks::UNDEFINED  15267344125                       # Cumulative time (in ticks) in various power states
system.mem_ctrls.bytes_read::cpu0.data       12055040                       # Number of bytes read from this memory
system.mem_ctrls.bytes_read::total           12055040                       # Number of bytes read from this memory
system.mem_ctrls.bytes_written::writebacks        17792                       # Number of bytes written to this memory
system.mem_ctrls.bytes_written::total           17792                       # Number of bytes written to this memory
system.mem_ctrls.num_reads::cpu0.data          188360                       # Number of read requests responded to by this memory
system.mem_ctrls.num_reads::total              188360                       # Number of read requests responded to by this memory
system.mem_ctrls.num_writes::writebacks           278                       # Number of write requests responded to by this memory
system.mem_ctrls.num_writes::total                278                       # Number of write requests responded to by this memory
system.mem_ctrls.bw_read::cpu0.data         789596403                       # Total read bandwidth from this memory (bytes/s)
system.mem_ctrls.bw_read::total             789596403                       # Total read bandwidth from this memory (bytes/s)
system.mem_ctrls.bw_write::writebacks         1165363                       # Write bandwidth from this memory (bytes/s)
system.mem_ctrls.bw_write::total              1165363                       # Write bandwidth from this memory (bytes/s)
system.mem_ctrls.bw_total::writebacks         1165363                       # Total bandwidth to/from this memory (bytes/s)
system.mem_ctrls.bw_total::cpu0.data        789596403                       # Total bandwidth to/from this memory (bytes/s)
system.mem_ctrls.bw_total::total            790761766                       # Total bandwidth to/from this memory (bytes/s)
system.mem_ctrls.readReqs                      188360                       # Number of read requests accepted
system.mem_ctrls.writeReqs                        278                       # Number of write requests accepted
system.mem_ctrls.readBursts                    188360                       # Number of DRAM read bursts, including those serviced by the write queue
system.mem_ctrls.writeBursts                      278                       # Number of DRAM write bursts, including those merged in the write queue
system.mem_ctrls.bytesReadDRAM               12052672                       # Total number of bytes read from DRAM
system.mem_ctrls.bytesReadWrQ                    2368                       # Total number of bytes read from write queue
system.mem_ctrls.bytesWritten                   17408                       # Total number of bytes written to DRAM
system.mem_ctrls.bytesReadSys                12055040                       # Total read bytes from the system interface side
system.mem_ctrls.bytesWrittenSys                17792                       # Total written bytes from the system interface side
system.mem_ctrls.servicedByWrQ                     37                       # Number of DRAM read bursts serviced by the write queue
system.mem_ctrls.mergedWrBursts                     0                       # Number of DRAM write bursts merged with an existing one
system.mem_ctrls.neitherReadNorWriteReqs            0                       # Number of requests that are neither read nor write
system.mem_ctrls.perBankRdBursts::0             11725                       # Per bank write bursts
system.mem_ctrls.perBankRdBursts::1             11689                       # Per bank write bursts
system.mem_ctrls.perBankRdBursts::2             11696                       # Per bank write bursts
system.mem_ctrls.perBankRdBursts::3             12005                       # Per bank write bursts
system.mem_ctrls.perBankRdBursts::4             12036                       # Per bank write bursts
system.mem_ctrls.perBankRdBursts::5             11987                       # Per bank write bursts
system.mem_ctrls.perBankRdBursts::6             12217                       # Per bank write bursts
system.mem_ctrls.perBankRdBursts::7             11767                       # Per bank write bursts
system.mem_ctrls.perBankRdBursts::8             11584                       # Per bank write bursts
system.mem_ctrls.perBankRdBursts::9             11523                       # Per bank write bursts
system.mem_ctrls.perBankRdBursts::10            11577                       # Per bank write bursts
system.mem_ctrls.perBankRdBursts::11            11690                       # Per bank write bursts
system.mem_ctrls.perBankRdBursts::12            12029                       # Per bank write bursts
system.mem_ctrls.perBankRdBursts::13            11465                       # Per bank write bursts
system.mem_ctrls.perBankRdBursts::14            11712                       # Per bank write bursts
system.mem_ctrls.perBankRdBursts::15            11621                       # Per bank write bursts
system.mem_ctrls.perBankWrBursts::0                 0                       # Per bank write bursts
system.mem_ctrls.perBankWrBursts::1                 0                       # Per bank write bursts
system.mem_ctrls.perBankWrBursts::2                 0                       # Per bank write bursts
system.mem_ctrls.perBankWrBursts::3                70                       # Per bank write bursts
system.mem_ctrls.perBankWrBursts::4                21                       # Per bank write bursts
system.mem_ctrls.perBankWrBursts::5               119                       # Per bank write bursts
system.mem_ctrls.perBankWrBursts::6                37                       # Per bank write bursts
system.mem_ctrls.perBankWrBursts::7                 0                       # Per bank write bursts
system.mem_ctrls.perBankWrBursts::8                 0                       # Per bank write bursts
system.mem_ctrls.perBankWrBursts::9                 0                       # Per bank write bursts
system.mem_ctrls.perBankWrBursts::10                0                       # Per bank write bursts
system.mem_ctrls.perBankWrBursts::11                0                       # Per bank write bursts
system.mem_ctrls.perBankWrBursts::12               17                       # Per bank write bursts
system.mem_ctrls.perBankWrBursts::13                0                       # Per bank write bursts
system.mem_ctrls.perBankWrBursts::14                8                       # Per bank write bursts
system.mem_ctrls.perBankWrBursts::15                0                       # Per bank write bursts
system.mem_ctrls.numRdRetry                         0                       # Number of times read queue was full causing retry
system.mem_ctrls.numWrRetry                         0                       # Number of times write queue was full causing retry
system.mem_ctrls.totGap                   15267384500                       # Total gap between requests
system.mem_ctrls.readPktSize::0                     0                       # Read request sizes (log2)
system.mem_ctrls.readPktSize::1                     0                       # Read request sizes (log2)
system.mem_ctrls.readPktSize::2                     0                       # Read request sizes (log2)
system.mem_ctrls.readPktSize::3                     0                       # Read request sizes (log2)
system.mem_ctrls.readPktSize::4                     0                       # Read request sizes (log2)
system.mem_ctrls.readPktSize::5                     0                       # Read request sizes (log2)
system.mem_ctrls.readPktSize::6                188360                       # Read request sizes (log2)
system.mem_ctrls.writePktSize::0                    0                       # Write request sizes (log2)
system.mem_ctrls.writePktSize::1                    0                       # Write request sizes (log2)
system.mem_ctrls.writePktSize::2                    0                       # Write request sizes (log2)
system.mem_ctrls.writePktSize::3                    0                       # Write request sizes (log2)
system.mem_ctrls.writePktSize::4                    0                       # Write request sizes (log2)
system.mem_ctrls.writePktSize::5                    0                       # Write request sizes (log2)
system.mem_ctrls.writePktSize::6                  278                       # Write request sizes (log2)
system.mem_ctrls.rdQLenPdf::0                  144243                       # What read queue length does an incoming req see
system.mem_ctrls.rdQLenPdf::1                   41501                       # What read queue length does an incoming req see
system.mem_ctrls.rdQLenPdf::2                    2525                       # What read queue length does an incoming req see
system.mem_ctrls.rdQLenPdf::3                      54                       # What read queue length does an incoming req see
system.mem_ctrls.rdQLenPdf::4                       0                       # What read queue length does an incoming req see
system.mem_ctrls.rdQLenPdf::5                       0                       # What read queue length does an incoming req see
system.mem_ctrls.rdQLenPdf::6                       0                       # What read queue length does an incoming req see
system.mem_ctrls.rdQLenPdf::7                       0                       # What read queue length does an incoming req see
system.mem_ctrls.rdQLenPdf::8                       0                       # What read queue length does an incoming req see
system.mem_ctrls.rdQLenPdf::9                       0                       # What read queue length does an incoming req see
system.mem_ctrls.rdQLenPdf::10                      0                       # What read queue length does an incoming req see
system.mem_ctrls.rdQLenPdf::11                      0                       # What read queue length does an incoming req see
system.mem_ctrls.rdQLenPdf::12                      0                       # What read queue length does an incoming req see
system.mem_ctrls.rdQLenPdf::13                      0                       # What read queue length does an incoming req see
system.mem_ctrls.rdQLenPdf::14                      0                       # What read queue length does an incoming req see
system.mem_ctrls.rdQLenPdf::15                      0                       # What read queue length does an incoming req see
system.mem_ctrls.rdQLenPdf::16                      0                       # What read queue length does an incoming req see
system.mem_ctrls.rdQLenPdf::17                      0                       # What read queue length does an incoming req see
system.mem_ctrls.rdQLenPdf::18                      0                       # What read queue length does an incoming req see
system.mem_ctrls.rdQLenPdf::19                      0                       # What read queue length does an incoming req see
system.mem_ctrls.rdQLenPdf::20                      0                       # What read queue length does an incoming req see
system.mem_ctrls.rdQLenPdf::21                      0                       # What read queue length does an incoming req see
system.mem_ctrls.rdQLenPdf::22                      0                       # What read queue length does an incoming req see
system.mem_ctrls.rdQLenPdf::23                      0                       # What read queue length does an incoming req see
system.mem_ctrls.rdQLenPdf::24                      0                       # What read queue length does an incoming req see
system.mem_ctrls.rdQLenPdf::25                      0                       # What read queue length does an incoming req see
system.mem_ctrls.rdQLenPdf::26                      0                       # What read queue length does an incoming req see
system.mem_ctrls.rdQLenPdf::27                      0                       # What read queue length does an incoming req see
system.mem_ctrls.rdQLenPdf::28                      0                       # What read queue length does an incoming req see
system.mem_ctrls.rdQLenPdf::29                      0                       # What read queue length does an incoming req see
system.mem_ctrls.rdQLenPdf::30                      0                       # What read queue length does an incoming req see
system.mem_ctrls.rdQLenPdf::31                      0                       # What read queue length does an incoming req see
system.mem_ctrls.wrQLenPdf::0                       0                       # What write queue length does an incoming req see
system.mem_ctrls.wrQLenPdf::1                       0                       # What write queue length does an incoming req see
system.mem_ctrls.wrQLenPdf::2                       0                       # What write queue length does an incoming req see
system.mem_ctrls.wrQLenPdf::3                       0                       # What write queue length does an incoming req see
system.mem_ctrls.wrQLenPdf::4                       0                       # What write queue length does an incoming req see
system.mem_ctrls.wrQLenPdf::5                       0                       # What write queue length does an incoming req see
system.mem_ctrls.wrQLenPdf::6                       0                       # What write queue length does an incoming req see
system.mem_ctrls.wrQLenPdf::7                       0                       # What write queue length does an incoming req see
system.mem_ctrls.wrQLenPdf::8                       0                       # What write queue length does an incoming req see
system.mem_ctrls.wrQLenPdf::9                       0                       # What write queue length does an incoming req see
system.mem_ctrls.wrQLenPdf::10                      0                       # What write queue length does an incoming req see
system.mem_ctrls.wrQLenPdf::11                      0                       # What write queue length does an incoming req see
system.mem_ctrls.wrQLenPdf::12                      0                       # What write queue length does an incoming req see
system.mem_ctrls.wrQLenPdf::13                      0                       # What write queue length does an incoming req see
system.mem_ctrls.wrQLenPdf::14                      0                       # What write queue length does an incoming req see
system.mem_ctrls.wrQLenPdf::15                      0                       # What write queue length does an incoming req see
system.mem_ctrls.wrQLenPdf::16                      0                       # What write queue length does an incoming req see
system.mem_ctrls.wrQLenPdf::17                     17                       # What write queue length does an incoming req see
system.mem_ctrls.wrQLenPdf::18                     17                       # What write queue length does an incoming req see
system.mem_ctrls.wrQLenPdf::19                     17                       # What write queue length does an incoming req see
system.mem_ctrls.wrQLenPdf::20                     17                       # What write queue length does an incoming req see
system.mem_ctrls.wrQLenPdf::21                     18                       # What write queue length does an incoming req see
system.mem_ctrls.wrQLenPdf::22                     18                       # What write queue length does an incoming req see
system.mem_ctrls.wrQLenPdf::23                     18                       # What write queue length does an incoming req see
system.mem_ctrls.wrQLenPdf::24                     18                       # What write queue length does an incoming req see
system.mem_ctrls.wrQLenPdf::25                     18                       # What write queue length does an incoming req see
system.mem_ctrls.wrQLenPdf::26                     18                       # What write queue length does an incoming req see
system.mem_ctrls.wrQLenPdf::27                     17                       # What write queue length does an incoming req see
system.mem_ctrls.wrQLenPdf::28                     17                       # What write queue length does an incoming req see
system.mem_ctrls.wrQLenPdf::29                     17                       # What write queue length does an incoming req see
system.mem_ctrls.wrQLenPdf::30                     17                       # What write queue length does an incoming req see
system.mem_ctrls.wrQLenPdf::31                     17                       # What write queue length does an incoming req see
system.mem_ctrls.wrQLenPdf::32                     17                       # What write queue length does an incoming req see
system.mem_ctrls.wrQLenPdf::33                      0                       # What write queue length does an incoming req see
system.mem_ctrls.wrQLenPdf::34                      0                       # What write queue length does an incoming req see
system.mem_ctrls.wrQLenPdf::35                      0                       # What write queue length does an incoming req see
system.mem_ctrls.wrQLenPdf::36                      0                       # What write queue length does an incoming req see
system.mem_ctrls.wrQLenPdf::37                      0                       # What write queue length does an incoming req see
system.mem_ctrls.wrQLenPdf::38                      0                       # What write queue length does an incoming req see
system.mem_ctrls.wrQLenPdf::39                      0                       # What write queue length does an incoming req see
system.mem_ctrls.wrQLenPdf::40                      0                       # What write queue length does an incoming req see
system.mem_ctrls.wrQLenPdf::41                      0                       # What write queue length does an incoming req see
system.mem_ctrls.wrQLenPdf::42                      0                       # What write queue length does an incoming req see
system.mem_ctrls.wrQLenPdf::43                      0                       # What write queue length does an incoming req see
system.mem_ctrls.wrQLenPdf::44                      0                       # What write queue length does an incoming req see
system.mem_ctrls.wrQLenPdf::45                      0                       # What write queue length does an incoming req see
system.mem_ctrls.wrQLenPdf::46                      0                       # What write queue length does an incoming req see
system.mem_ctrls.wrQLenPdf::47                      0                       # What write queue length does an incoming req see
system.mem_ctrls.wrQLenPdf::48                      0                       # What write queue length does an incoming req see
system.mem_ctrls.wrQLenPdf::49                      0                       # What write queue length does an incoming req see
system.mem_ctrls.wrQLenPdf::50                      0                       # What write queue length does an incoming req see
system.mem_ctrls.wrQLenPdf::51                      0                       # What write queue length does an incoming req see
system.mem_ctrls.wrQLenPdf::52                      0                       # What write queue length does an incoming req see
system.mem_ctrls.wrQLenPdf::53                      0                       # What write queue length does an incoming req see
system.mem_ctrls.wrQLenPdf::54                      0                       # What write queue length does an incoming req see
system.mem_ctrls.wrQLenPdf::55                      0                       # What write queue length does an incoming req see
system.mem_ctrls.wrQLenPdf::56                      0                       # What write queue length does an incoming req see
system.mem_ctrls.wrQLenPdf::57                      0                       # What write queue length does an incoming req see
system.mem_ctrls.wrQLenPdf::58                      0                       # What write queue length does an incoming req see
system.mem_ctrls.wrQLenPdf::59                      0                       # What write queue length does an incoming req see
system.mem_ctrls.wrQLenPdf::60                      0                       # What write queue length does an incoming req see
system.mem_ctrls.wrQLenPdf::61                      0                       # What write queue length does an incoming req see
system.mem_ctrls.wrQLenPdf::62                      0                       # What write queue length does an incoming req see
system.mem_ctrls.wrQLenPdf::63                      0                       # What write queue length does an incoming req see
system.mem_ctrls.bytesPerActivate::samples        97033                       # Bytes accessed per row activation
system.mem_ctrls.bytesPerActivate::mean    124.398091                       # Bytes accessed per row activation
system.mem_ctrls.bytesPerActivate::gmean   107.219518                       # Bytes accessed per row activation
system.mem_ctrls.bytesPerActivate::stdev    74.160182                       # Bytes accessed per row activation
system.mem_ctrls.bytesPerActivate::0-127        44195     45.55%     45.55% # Bytes accessed per row activation
system.mem_ctrls.bytesPerActivate::128-255        43017     44.33%     89.88% # Bytes accessed per row activation
system.mem_ctrls.bytesPerActivate::256-383         8570      8.83%     98.71% # Bytes accessed per row activation
system.mem_ctrls.bytesPerActivate::384-511         1105      1.14%     99.85% # Bytes accessed per row activation
system.mem_ctrls.bytesPerActivate::512-639          125      0.13%     99.98% # Bytes accessed per row activation
system.mem_ctrls.bytesPerActivate::640-767           14      0.01%     99.99% # Bytes accessed per row activation
system.mem_ctrls.bytesPerActivate::768-895            3      0.00%    100.00% # Bytes accessed per row activation
system.mem_ctrls.bytesPerActivate::896-1023            2      0.00%    100.00% # Bytes accessed per row activation
system.mem_ctrls.bytesPerActivate::1024-1151            2      0.00%    100.00% # Bytes accessed per row activation
system.mem_ctrls.bytesPerActivate::total        97033                       # Bytes accessed per row activation
system.mem_ctrls.rdPerTurnAround::samples           17                       # Reads before turning the bus around for writes
system.mem_ctrls.rdPerTurnAround::mean   10881.647059                       # Reads before turning the bus around for writes
system.mem_ctrls.rdPerTurnAround::gmean  10521.837477                       # Reads before turning the bus around for writes
system.mem_ctrls.rdPerTurnAround::stdev   2675.409313                       # Reads before turning the bus around for writes
system.mem_ctrls.rdPerTurnAround::4608-5119            1      5.88%      5.88% # Reads before turning the bus around for writes
system.mem_ctrls.rdPerTurnAround::7680-8191            2     11.76%     17.65% # Reads before turning the bus around for writes
system.mem_ctrls.rdPerTurnAround::8192-8703            1      5.88%     23.53% # Reads before turning the bus around for writes
system.mem_ctrls.rdPerTurnAround::9216-9727            1      5.88%     29.41% # Reads before turning the bus around for writes
system.mem_ctrls.rdPerTurnAround::10240-10751            3     17.65%     47.06% # Reads before turning the bus around for writes
system.mem_ctrls.rdPerTurnAround::10752-11263            2     11.76%     58.82% # Reads before turning the bus around for writes
system.mem_ctrls.rdPerTurnAround::11264-11775            1      5.88%     64.71% # Reads before turning the bus around for writes
system.mem_ctrls.rdPerTurnAround::11776-12287            2     11.76%     76.47% # Reads before turning the bus around for writes
system.mem_ctrls.rdPerTurnAround::13312-13823            1      5.88%     82.35% # Reads before turning the bus around for writes
system.mem_ctrls.rdPerTurnAround::13824-14335            1      5.88%     88.24% # Reads before turning the bus around for writes
system.mem_ctrls.rdPerTurnAround::14336-14847            1      5.88%     94.12% # Reads before turning the bus around for writes
system.mem_ctrls.rdPerTurnAround::14848-15359            1      5.88%    100.00% # Reads before turning the bus around for writes
system.mem_ctrls.rdPerTurnAround::total            17                       # Reads before turning the bus around for writes
system.mem_ctrls.wrPerTurnAround::samples           17                       # Writes before turning the bus around for reads
system.mem_ctrls.wrPerTurnAround::mean             16                       # Writes before turning the bus around for reads
system.mem_ctrls.wrPerTurnAround::gmean     16.000000                       # Writes before turning the bus around for reads
system.mem_ctrls.wrPerTurnAround::16               17    100.00%    100.00% # Writes before turning the bus around for reads
system.mem_ctrls.wrPerTurnAround::total            17                       # Writes before turning the bus around for reads
system.mem_ctrls.totQLat                   4688667750                       # Total ticks spent queuing
system.mem_ctrls.totMemAccLat              8219724000                       # Total ticks spent from burst creation until serviced by the DRAM
system.mem_ctrls.totBusLat                  941615000                       # Total ticks spent in databus transfers
system.mem_ctrls.avgQLat                     24896.95                       # Average queueing delay per DRAM burst
system.mem_ctrls.avgBusLat                    5000.00                       # Average bus latency per DRAM burst
system.mem_ctrls.avgMemAccLat                43646.95                       # Average memory access latency per DRAM burst
system.mem_ctrls.avgRdBW                       789.44                       # Average DRAM read bandwidth in MiByte/s
system.mem_ctrls.avgWrBW                         1.14                       # Average achieved write bandwidth in MiByte/s
system.mem_ctrls.avgRdBWSys                    789.60                       # Average system read bandwidth in MiByte/s
system.mem_ctrls.avgWrBWSys                      1.17                       # Average system write bandwidth in MiByte/s
system.mem_ctrls.peakBW                      12800.00                       # Theoretical peak bandwidth in MiByte/s
system.mem_ctrls.busUtil                         6.18                       # Data bus utilization in percentage
system.mem_ctrls.busUtilRead                     6.17                       # Data bus utilization in percentage for reads
system.mem_ctrls.busUtilWrite                    0.01                       # Data bus utilization in percentage for writes
system.mem_ctrls.avgRdQLen                       1.30                       # Average read queue length when enqueuing
system.mem_ctrls.avgWrQLen                      25.90                       # Average write queue length when enqueuing
system.mem_ctrls.readRowHits                    91336                       # Number of row buffer hits during reads
system.mem_ctrls.writeRowHits                     228                       # Number of row buffer hits during writes
system.mem_ctrls.readRowHitRate                 48.50                       # Row buffer hit rate for reads
system.mem_ctrls.writeRowHitRate                82.01                       # Row buffer hit rate for writes
system.mem_ctrls.avgGap                      80934.83                       # Average gap between requests
system.mem_ctrls.pageHitRate                    48.55                       # Row buffer hit rate, read and write combined
system.mem_ctrls_0.actEnergy                349160280                       # Energy for activate commands per rank (pJ)
system.mem_ctrls_0.preEnergy                185583090                       # Energy for precharge commands per rank (pJ)
system.mem_ctrls_0.readEnergy               679171080                       # Energy for read commands per rank (pJ)
system.mem_ctrls_0.writeEnergy                1289340                       # Energy for write commands per rank (pJ)
system.mem_ctrls_0.refreshEnergy         1205309040.000000                       # Energy for refresh commands per rank (pJ)
system.mem_ctrls_0.actBackEnergy           1615238640                       # Energy for active background per rank (pJ)
system.mem_ctrls_0.preBackEnergy             24506400                       # Energy for precharge background per rank (pJ)
system.mem_ctrls_0.actPowerDownEnergy      5176193370                       # Energy for active power-down per rank (pJ)
system.mem_ctrls_0.prePowerDownEnergy       116446080                       # Energy for precharge power-down per rank (pJ)
system.mem_ctrls_0.selfRefreshEnergy          2181540                       # Energy for self refresh per rank (pJ)
system.mem_ctrls_0.totalEnergy             9355078860                       # Total energy per rank (pJ)
system.mem_ctrls_0.averagePower            612.750900                       # Core power per rank (mW)
system.mem_ctrls_0.totalIdleTime          11661463000                       # Total Idle time Per DRAM Rank
system.mem_ctrls_0.memoryStateTime::IDLE      9762000                       # Time in different power states
system.mem_ctrls_0.memoryStateTime::REF     509866000                       # Time in different power states
system.mem_ctrls_0.memoryStateTime::SREF      6788500                       # Time in different power states
system.mem_ctrls_0.memoryStateTime::PRE_PDN    303323750                       # Time in different power states
system.mem_ctrls_0.memoryStateTime::ACT    3086242750                       # Time in different power states
system.mem_ctrls_0.memoryStateTime::ACT_PDN  11351361125                       # Time in different power states
system.mem_ctrls_1.actEnergy                343641060                       # Energy for activate commands per rank (pJ)
system.mem_ctrls_1.preEnergy                182657145                       # Energy for precharge commands per rank (pJ)
system.mem_ctrls_1.readEnergy               665455140                       # Energy for read commands per rank (pJ)
system.mem_ctrls_1.writeEnergy                 130500                       # Energy for write commands per rank (pJ)
system.mem_ctrls_1.refreshEnergy         1205923680.000000                       # Energy for refresh commands per rank (pJ)
system.mem_ctrls_1.actBackEnergy           1588941690                       # Energy for active background per rank (pJ)
system.mem_ctrls_1.preBackEnergy             24443040                       # Energy for precharge background per rank (pJ)
system.mem_ctrls_1.actPowerDownEnergy      5229351570                       # Energy for active power-down per rank (pJ)
system.mem_ctrls_1.prePowerDownEnergy        95470560                       # Energy for precharge power-down per rank (pJ)
system.mem_ctrls_1.selfRefreshEnergy          1193340                       # Energy for self refresh per rank (pJ)
system.mem_ctrls_1.totalEnergy             9337207725                       # Total energy per rank (pJ)
system.mem_ctrls_1.averagePower            611.580354                       # Core power per rank (mW)
system.mem_ctrls_1.totalIdleTime          11718693500                       # Total Idle time Per DRAM Rank
system.mem_ctrls_1.memoryStateTime::IDLE      9549500                       # Time in different power states
system.mem_ctrls_1.memoryStateTime::REF     510132000                       # Time in different power states
system.mem_ctrls_1.memoryStateTime::SREF      2671000                       # Time in different power states
system.mem_ctrls_1.memoryStateTime::PRE_PDN    248676500                       # Time in different power states
system.mem_ctrls_1.memoryStateTime::ACT    3027999750                       # Time in different power states
system.mem_ctrls_1.memoryStateTime::ACT_PDN  11468315375                       # Time in different power states
system.pwrStateResidencyTicks::UNDEFINED  15267344125                       # Cumulative time (in ticks) in various power states
system.cpu0.branchPred.lookups                1431981                       # Number of BP lookups
system.cpu0.branchPred.condPredicted          1431981                       # Number of conditional branches predicted
system.cpu0.branchPred.condIncorrect            50821                       # Number of conditional branches incorrect
system.cpu0.branchPred.BTBLookups              977703                       # Number of BTB lookups
system.cpu0.branchPred.BTBHits                      0                       # Number of BTB hits
system.cpu0.branchPred.BTBCorrect                   0                       # Number of correct BTB predictions (this stat may not work properly.
system.cpu0.branchPred.BTBHitPct             0.000000                       # BTB Hit Percentage
system.cpu0.branchPred.usedRAS                  30176                       # Number of times the RAS was used to get a target.
system.cpu0.branchPred.RASInCorrect              4824                       # Number of incorrect RAS predictions.
system.cpu0.branchPred.indirectLookups         977703                       # Number of indirect predictor lookups.
system.cpu0.branchPred.indirectHits            636910                       # Number of indirect target hits.
system.cpu0.branchPred.indirectMisses          340793                       # Number of indirect misses.
system.cpu0.branchPredindirectMispredicted        12365                       # Number of mispredicted indirect branches.
system.cpu_voltage_domain.voltage                   1                       # Voltage in Volts
system.cpu_clk_domain.clock                       500                       # Clock period in ticks
system.cpu0.dtb.walker.pwrStateResidencyTicks::UNDEFINED  15267344125                       # Cumulative time (in ticks) in various power states
system.cpu0.dtb.rdAccesses                     695208                       # TLB accesses on read requests
system.cpu0.dtb.wrAccesses                      36238                       # TLB accesses on write requests
system.cpu0.dtb.rdMisses                       162636                       # TLB misses on read requests
system.cpu0.dtb.wrMisses                          619                       # TLB misses on write requests
system.cpu0.apic_clk_domain.clock                8000                       # Clock period in ticks
system.cpu0.interrupts.pwrStateResidencyTicks::UNDEFINED  15267344125                       # Cumulative time (in ticks) in various power states
system.cpu0.itb.walker.pwrStateResidencyTicks::UNDEFINED  15267344125                       # Cumulative time (in ticks) in various power states
system.cpu0.itb.rdAccesses                          0                       # TLB accesses on read requests
system.cpu0.itb.wrAccesses                    1256824                       # TLB accesses on write requests
system.cpu0.itb.rdMisses                            0                       # TLB misses on read requests
system.cpu0.itb.wrMisses                         3455                       # TLB misses on write requests
system.cpu0.workload.numSyscalls                    0                       # Number of system calls
system.cpu0.pwrStateResidencyTicks::ON    15267344125                       # Cumulative time (in ticks) in various power states
system.cpu0.numCycles                        30534633                       # number of cpu cycles simulated
system.cpu0.numWorkItemsStarted                     0                       # number of work items this cpu started
system.cpu0.numWorkItemsCompleted                   0                       # number of work items this cpu completed
system.cpu0.fetch.icacheStallCycles           1277694                       # Number of cycles fetch is stalled on an Icache miss
system.cpu0.fetch.Insts                       4044744                       # Number of instructions fetch has processed
system.cpu0.fetch.Branches                    1431981                       # Number of branches that fetch encountered
system.cpu0.fetch.predictedBranches            667086                       # Number of branches that fetch has predicted taken
system.cpu0.fetch.Cycles                     29148496                       # Number of cycles fetch has run and was not squashing or blocked
system.cpu0.fetch.SquashCycles                 103992                       # Number of cycles fetch has spent squashing
system.cpu0.fetch.TlbCycles                      1194                       # Number of cycles fetch has spent waiting for tlb
system.cpu0.fetch.MiscStallCycles                 845                       # Number of cycles fetch has spent waiting on interrupts, or bad addresses, or out of MSHRs
system.cpu0.fetch.PendingTrapStallCycles        28935                       # Number of stall cycles due to pending traps
system.cpu0.fetch.CacheLines                  1253369                       # Number of cache lines fetched
system.cpu0.fetch.IcacheSquashes                 5068                       # Number of outstanding Icache misses that were squashed
system.cpu0.fetch.ItlbSquashes                      3                       # Number of outstanding ITLB misses that were squashed
system.cpu0.fetch.rateDist::samples          30509160                       # Number of instructions fetched each cycle (Total)
system.cpu0.fetch.rateDist::mean             0.266039                       # Number of instructions fetched each cycle (Total)
system.cpu0.fetch.rateDist::stdev            1.293477                       # Number of instructions fetched each cycle (Total)
system.cpu0.fetch.rateDist::underflows              0      0.00%      0.00% # Number of instructions fetched each cycle (Total)
system.cpu0.fetch.rateDist::0                28890619     94.69%     94.69% # Number of instructions fetched each cycle (Total)
system.cpu0.fetch.rateDist::1                   10685      0.04%     94.73% # Number of instructions fetched each cycle (Total)
system.cpu0.fetch.rateDist::2                  649093      2.13%     96.86% # Number of instructions fetched each cycle (Total)
system.cpu0.fetch.rateDist::3                   16814      0.06%     96.91% # Number of instructions fetched each cycle (Total)
system.cpu0.fetch.rateDist::4                  117765      0.39%     97.30% # Number of instructions fetched each cycle (Total)
system.cpu0.fetch.rateDist::5                   43171      0.14%     97.44% # Number of instructions fetched each cycle (Total)
system.cpu0.fetch.rateDist::6                   81255      0.27%     97.71% # Number of instructions fetched each cycle (Total)
system.cpu0.fetch.rateDist::7                   15196      0.05%     97.76% # Number of instructions fetched each cycle (Total)
system.cpu0.fetch.rateDist::8                  684562      2.24%    100.00% # Number of instructions fetched each cycle (Total)
system.cpu0.fetch.rateDist::overflows               0      0.00%    100.00% # Number of instructions fetched each cycle (Total)
system.cpu0.fetch.rateDist::min_value               0                       # Number of instructions fetched each cycle (Total)
system.cpu0.fetch.rateDist::max_value               8                       # Number of instructions fetched each cycle (Total)
system.cpu0.fetch.rateDist::total            30509160                       # Number of instructions fetched each cycle (Total)
system.cpu0.fetch.branchRate                 0.046897                       # Number of branch fetches per cycle
system.cpu0.fetch.rate                       0.132464                       # Number of inst fetches per cycle
system.cpu0.decode.IdleCycles                  589767                       # Number of cycles decode is idle
system.cpu0.decode.BlockedCycles             28833878                       # Number of cycles decode is blocked
system.cpu0.decode.RunCycles                   720716                       # Number of cycles decode is running
system.cpu0.decode.UnblockCycles               312803                       # Number of cycles decode is unblocking
system.cpu0.decode.SquashCycles                 51996                       # Number of cycles decode is squashing
system.cpu0.decode.DecodedInsts               6729072                       # Number of instructions handled by decode
system.cpu0.rename.SquashCycles                 51996                       # Number of cycles rename is squashing
system.cpu0.rename.IdleCycles                  677944                       # Number of cycles rename is idle
system.cpu0.rename.BlockCycles               27580459                       # Number of cycles rename is blocking
system.cpu0.rename.serializeStallCycles          5911                       # count of cycles rename stalled for serializing inst
system.cpu0.rename.RunCycles                   868488                       # Number of cycles rename is running
system.cpu0.rename.UnblockCycles              1324362                       # Number of cycles rename is unblocking
system.cpu0.rename.RenamedInsts               6492261                       # Number of instructions processed by rename
system.cpu0.rename.ROBFullEvents                45968                       # Number of times rename has blocked due to ROB full
system.cpu0.rename.IQFullEvents               1093580                       # Number of times rename has blocked due to IQ full
system.cpu0.rename.LQFullEvents                183053                       # Number of times rename has blocked due to LQ full
system.cpu0.rename.SQFullEvents                   437                       # Number of times rename has blocked due to SQ full
system.cpu0.rename.RenamedOperands            7763175                       # Number of destination operands rename has renamed
system.cpu0.rename.RenameLookups             18275101                       # Number of register rename lookups that rename has made
system.cpu0.rename.int_rename_lookups         8385961                       # Number of integer rename lookups
system.cpu0.rename.fp_rename_lookups            29537                       # Number of floating rename lookups
system.cpu0.rename.CommittedMaps              3115956                       # Number of HB maps that are committed
system.cpu0.rename.UndoneMaps                 4647186                       # Number of HB maps that are undone due to squashing
system.cpu0.rename.serializingInsts               118                       # count of serializing insts renamed
system.cpu0.rename.tempSerializingInsts           140                       # count of temporary serializing insts renamed
system.cpu0.rename.skidInsts                  2035014                       # count of insts added to the skid buffer
system.cpu0.memDep0.insertedLoads             1207963                       # Number of loads inserted to the mem dependence unit.
system.cpu0.memDep0.insertedStores              50937                       # Number of stores inserted to the mem dependence unit.
system.cpu0.memDep0.conflictingLoads             3520                       # Number of conflicting loads.
system.cpu0.memDep0.conflictingStores            3125                       # Number of conflicting stores.
system.cpu0.iq.iqInstsAdded                   6231901                       # Number of instructions added to the IQ (excludes non-spec)
system.cpu0.iq.iqNonSpecInstsAdded               2651                       # Number of non-speculative instructions added to the IQ
system.cpu0.iq.iqInstsIssued                  4505101                       # Number of instructions issued
system.cpu0.iq.iqSquashedInstsIssued             4079                       # Number of squashed instructions issued
system.cpu0.iq.iqSquashedInstsExamined        3633210                       # Number of squashed instructions iterated over during squash; mainly for profiling
system.cpu0.iq.iqSquashedOperandsExamined      7956879                       # Number of squashed operands that are examined and possibly removed from graph
system.cpu0.iq.iqSquashedNonSpecRemoved          2651                       # Number of squashed non-spec instructions that were removed
system.cpu0.iq.issued_per_cycle::samples     30509160                       # Number of insts issued each cycle
system.cpu0.iq.issued_per_cycle::mean        0.147664                       # Number of insts issued each cycle
system.cpu0.iq.issued_per_cycle::stdev       0.683341                       # Number of insts issued each cycle
system.cpu0.iq.issued_per_cycle::underflows            0      0.00%      0.00% # Number of insts issued each cycle
system.cpu0.iq.issued_per_cycle::0           28562828     93.62%     93.62% # Number of insts issued each cycle
system.cpu0.iq.issued_per_cycle::1             812611      2.66%     96.28% # Number of insts issued each cycle
system.cpu0.iq.issued_per_cycle::2             426382      1.40%     97.68% # Number of insts issued each cycle
system.cpu0.iq.issued_per_cycle::3             286988      0.94%     98.62% # Number of insts issued each cycle
system.cpu0.iq.issued_per_cycle::4             263132      0.86%     99.48% # Number of insts issued each cycle
system.cpu0.iq.issued_per_cycle::5              66097      0.22%     99.70% # Number of insts issued each cycle
system.cpu0.iq.issued_per_cycle::6              57342      0.19%     99.89% # Number of insts issued each cycle
system.cpu0.iq.issued_per_cycle::7              18543      0.06%     99.95% # Number of insts issued each cycle
system.cpu0.iq.issued_per_cycle::8              15237      0.05%    100.00% # Number of insts issued each cycle
system.cpu0.iq.issued_per_cycle::overflows            0      0.00%    100.00% # Number of insts issued each cycle
system.cpu0.iq.issued_per_cycle::min_value            0                       # Number of insts issued each cycle
system.cpu0.iq.issued_per_cycle::max_value            8                       # Number of insts issued each cycle
system.cpu0.iq.issued_per_cycle::total       30509160                       # Number of insts issued each cycle
system.cpu0.iq.fu_full::No_OpClass                  0      0.00%      0.00% # attempts to use FU when none available
system.cpu0.iq.fu_full::IntAlu                   7835     67.74%     67.74% # attempts to use FU when none available
system.cpu0.iq.fu_full::IntMult                     0      0.00%     67.74% # attempts to use FU when none available
system.cpu0.iq.fu_full::IntDiv                      0      0.00%     67.74% # attempts to use FU when none available
system.cpu0.iq.fu_full::FloatAdd                  895      7.74%     75.48% # attempts to use FU when none available
system.cpu0.iq.fu_full::FloatCmp                    0      0.00%     75.48% # attempts to use FU when none available
system.cpu0.iq.fu_full::FloatCvt                    0      0.00%     75.48% # attempts to use FU when none available
system.cpu0.iq.fu_full::FloatMult                   0      0.00%     75.48% # attempts to use FU when none available
system.cpu0.iq.fu_full::FloatMultAcc                0      0.00%     75.48% # attempts to use FU when none available
system.cpu0.iq.fu_full::FloatDiv                    0      0.00%     75.48% # attempts to use FU when none available
system.cpu0.iq.fu_full::FloatMisc                   0      0.00%     75.48% # attempts to use FU when none available
system.cpu0.iq.fu_full::FloatSqrt                   0      0.00%     75.48% # attempts to use FU when none available
system.cpu0.iq.fu_full::SimdAdd                     0      0.00%     75.48% # attempts to use FU when none available
system.cpu0.iq.fu_full::SimdAddAcc                  0      0.00%     75.48% # attempts to use FU when none available
system.cpu0.iq.fu_full::SimdAlu                     0      0.00%     75.48% # attempts to use FU when none available
system.cpu0.iq.fu_full::SimdCmp                     0      0.00%     75.48% # attempts to use FU when none available
system.cpu0.iq.fu_full::SimdCvt                     0      0.00%     75.48% # attempts to use FU when none available
system.cpu0.iq.fu_full::SimdMisc                    0      0.00%     75.48% # attempts to use FU when none available
system.cpu0.iq.fu_full::SimdMult                    0      0.00%     75.48% # attempts to use FU when none available
system.cpu0.iq.fu_full::SimdMultAcc                 0      0.00%     75.48% # attempts to use FU when none available
system.cpu0.iq.fu_full::SimdShift                   0      0.00%     75.48% # attempts to use FU when none available
system.cpu0.iq.fu_full::SimdShiftAcc                0      0.00%     75.48% # attempts to use FU when none available
system.cpu0.iq.fu_full::SimdSqrt                    0      0.00%     75.48% # attempts to use FU when none available
system.cpu0.iq.fu_full::SimdFloatAdd                0      0.00%     75.48% # attempts to use FU when none available
system.cpu0.iq.fu_full::SimdFloatAlu                0      0.00%     75.48% # attempts to use FU when none available
system.cpu0.iq.fu_full::SimdFloatCmp                0      0.00%     75.48% # attempts to use FU when none available
system.cpu0.iq.fu_full::SimdFloatCvt                0      0.00%     75.48% # attempts to use FU when none available
system.cpu0.iq.fu_full::SimdFloatDiv                0      0.00%     75.48% # attempts to use FU when none available
system.cpu0.iq.fu_full::SimdFloatMisc               0      0.00%     75.48% # attempts to use FU when none available
system.cpu0.iq.fu_full::SimdFloatMult               0      0.00%     75.48% # attempts to use FU when none available
system.cpu0.iq.fu_full::SimdFloatMultAcc            0      0.00%     75.48% # attempts to use FU when none available
system.cpu0.iq.fu_full::SimdFloatSqrt               0      0.00%     75.48% # attempts to use FU when none available
system.cpu0.iq.fu_full::MemRead                  2538     21.94%     97.42% # attempts to use FU when none available
system.cpu0.iq.fu_full::MemWrite                  158      1.37%     98.79% # attempts to use FU when none available
system.cpu0.iq.fu_full::FloatMemRead               64      0.55%     99.34% # attempts to use FU when none available
system.cpu0.iq.fu_full::FloatMemWrite              76      0.66%    100.00% # attempts to use FU when none available
system.cpu0.iq.fu_full::IprAccess                   0      0.00%    100.00% # attempts to use FU when none available
system.cpu0.iq.fu_full::InstPrefetch                0      0.00%    100.00% # attempts to use FU when none available
system.cpu0.iq.FU_type_0::No_OpClass            11252      0.25%      0.25% # Type of FU issued
system.cpu0.iq.FU_type_0::IntAlu              3717232     82.51%     82.76% # Type of FU issued
system.cpu0.iq.FU_type_0::IntMult                 644      0.01%     82.78% # Type of FU issued
system.cpu0.iq.FU_type_0::IntDiv                 7218      0.16%     82.94% # Type of FU issued
system.cpu0.iq.FU_type_0::FloatAdd              11188      0.25%     83.18% # Type of FU issued
system.cpu0.iq.FU_type_0::FloatCmp                  0      0.00%     83.18% # Type of FU issued
system.cpu0.iq.FU_type_0::FloatCvt                  0      0.00%     83.18% # Type of FU issued
system.cpu0.iq.FU_type_0::FloatMult                 0      0.00%     83.18% # Type of FU issued
system.cpu0.iq.FU_type_0::FloatMultAcc              0      0.00%     83.18% # Type of FU issued
system.cpu0.iq.FU_type_0::FloatDiv                  0      0.00%     83.18% # Type of FU issued
system.cpu0.iq.FU_type_0::FloatMisc                 0      0.00%     83.18% # Type of FU issued
system.cpu0.iq.FU_type_0::FloatSqrt                 0      0.00%     83.18% # Type of FU issued
system.cpu0.iq.FU_type_0::SimdAdd                   0      0.00%     83.18% # Type of FU issued
system.cpu0.iq.FU_type_0::SimdAddAcc                0      0.00%     83.18% # Type of FU issued
system.cpu0.iq.FU_type_0::SimdAlu                   0      0.00%     83.18% # Type of FU issued
system.cpu0.iq.FU_type_0::SimdCmp                   0      0.00%     83.18% # Type of FU issued
system.cpu0.iq.FU_type_0::SimdCvt                   0      0.00%     83.18% # Type of FU issued
system.cpu0.iq.FU_type_0::SimdMisc                  0      0.00%     83.18% # Type of FU issued
system.cpu0.iq.FU_type_0::SimdMult                  0      0.00%     83.18% # Type of FU issued
system.cpu0.iq.FU_type_0::SimdMultAcc               0      0.00%     83.18% # Type of FU issued
system.cpu0.iq.FU_type_0::SimdShift                 0      0.00%     83.18% # Type of FU issued
system.cpu0.iq.FU_type_0::SimdShiftAcc              0      0.00%     83.18% # Type of FU issued
system.cpu0.iq.FU_type_0::SimdSqrt                  0      0.00%     83.18% # Type of FU issued
system.cpu0.iq.FU_type_0::SimdFloatAdd              0      0.00%     83.18% # Type of FU issued
system.cpu0.iq.FU_type_0::SimdFloatAlu              0      0.00%     83.18% # Type of FU issued
system.cpu0.iq.FU_type_0::SimdFloatCmp              0      0.00%     83.18% # Type of FU issued
system.cpu0.iq.FU_type_0::SimdFloatCvt              0      0.00%     83.18% # Type of FU issued
system.cpu0.iq.FU_type_0::SimdFloatDiv              0      0.00%     83.18% # Type of FU issued
system.cpu0.iq.FU_type_0::SimdFloatMisc             0      0.00%     83.18% # Type of FU issued
system.cpu0.iq.FU_type_0::SimdFloatMult             0      0.00%     83.18% # Type of FU issued
system.cpu0.iq.FU_type_0::SimdFloatMultAcc            0      0.00%     83.18% # Type of FU issued
system.cpu0.iq.FU_type_0::SimdFloatSqrt             0      0.00%     83.18% # Type of FU issued
system.cpu0.iq.FU_type_0::MemRead              717053     15.92%     99.10% # Type of FU issued
system.cpu0.iq.FU_type_0::MemWrite              38394      0.85%     99.95% # Type of FU issued
system.cpu0.iq.FU_type_0::FloatMemRead           1824      0.04%     99.99% # Type of FU issued
system.cpu0.iq.FU_type_0::FloatMemWrite           296      0.01%    100.00% # Type of FU issued
system.cpu0.iq.FU_type_0::IprAccess                 0      0.00%    100.00% # Type of FU issued
system.cpu0.iq.FU_type_0::InstPrefetch              0      0.00%    100.00% # Type of FU issued
system.cpu0.iq.FU_type_0::total               4505101                       # Type of FU issued
system.cpu0.iq.rate                          0.147541                       # Inst issue rate
system.cpu0.iq.fu_busy_cnt                      11566                       # FU busy when requested
system.cpu0.iq.fu_busy_rate                  0.002567                       # FU busy rate (busy events/executed inst)
system.cpu0.iq.int_inst_queue_reads          39507059                       # Number of integer instruction queue reads
system.cpu0.iq.int_inst_queue_writes          9842649                       # Number of integer instruction queue writes
system.cpu0.iq.int_inst_queue_wakeup_accesses      4354606                       # Number of integer instruction queue wakeup accesses
system.cpu0.iq.fp_inst_queue_reads              27948                       # Number of floating instruction queue reads
system.cpu0.iq.fp_inst_queue_writes             25114                       # Number of floating instruction queue writes
system.cpu0.iq.fp_inst_queue_wakeup_accesses        12157                       # Number of floating instruction queue wakeup accesses
system.cpu0.iq.vec_inst_queue_reads                 0                       # Number of vector instruction queue reads
system.cpu0.iq.vec_inst_queue_writes                0                       # Number of vector instruction queue writes
system.cpu0.iq.vec_inst_queue_wakeup_accesses            0                       # Number of vector instruction queue wakeup accesses
system.cpu0.iq.int_alu_accesses               4491050                       # Number of integer alu accesses
system.cpu0.iq.fp_alu_accesses                  14365                       # Number of floating point alu accesses
system.cpu0.iq.vec_alu_accesses                     0                       # Number of vector alu accesses
system.cpu0.iew.lsq.thread0.forwLoads            4138                       # Number of loads that had data forwarded from stores
system.cpu0.iew.lsq.thread0.invAddrLoads            0                       # Number of loads ignored due to an invalid address
system.cpu0.iew.lsq.thread0.squashedLoads       706938                       # Number of loads squashed
system.cpu0.iew.lsq.thread0.ignoredResponses           78                       # Number of memory responses ignored because the instruction is squashed
system.cpu0.iew.lsq.thread0.memOrderViolation            1                       # Number of memory ordering violations
system.cpu0.iew.lsq.thread0.squashedStores        29495                       # Number of stores squashed
system.cpu0.iew.lsq.thread0.invAddrSwpfs            0                       # Number of software prefetches ignored due to an invalid address
system.cpu0.iew.lsq.thread0.blockedLoads            0                       # Number of blocked loads due to partial load-store forwarding
system.cpu0.iew.lsq.thread0.rescheduledLoads           39                       # Number of loads that were rescheduled
system.cpu0.iew.lsq.thread0.cacheBlocked         1799                       # Number of times an access to memory failed due to the cache being blocked
system.cpu0.iew.iewIdleCycles                       0                       # Number of cycles IEW is idle
system.cpu0.iew.iewSquashCycles                 51996                       # Number of cycles IEW is squashing
system.cpu0.iew.iewBlockCycles               25992659                       # Number of cycles IEW is blocking
system.cpu0.iew.iewUnblockCycles               256728                       # Number of cycles IEW is unblocking
system.cpu0.iew.iewDispatchedInsts            6234552                       # Number of instructions dispatched to IQ
system.cpu0.iew.iewDispSquashedInsts             2908                       # Number of squashed instructions skipped by dispatch
system.cpu0.iew.iewDispLoadInsts              1207963                       # Number of dispatched load instructions
system.cpu0.iew.iewDispStoreInsts               50937                       # Number of dispatched store instructions
system.cpu0.iew.iewDispNonSpecInsts               958                       # Number of dispatched non-speculative instructions
system.cpu0.iew.iewIQFullEvents                 12843                       # Number of times the IQ has become full, causing a stall
system.cpu0.iew.iewLSQFullEvents                38318                       # Number of times the LSQ has become full, causing a stall
system.cpu0.iew.memOrderViolationEvents             1                       # Number of memory order violations
system.cpu0.iew.predictedTakenIncorrect         31836                       # Number of branches that were predicted taken incorrectly
system.cpu0.iew.predictedNotTakenIncorrect        24869                       # Number of branches that were predicted not taken incorrectly
system.cpu0.iew.branchMispredicts               56705                       # Number of branch mispredicts detected at execute
system.cpu0.iew.iewExecutedInsts              4446176                       # Number of executed instructions
system.cpu0.iew.iewExecLoadInsts               695004                       # Number of load instructions executed
system.cpu0.iew.iewExecSquashedInsts            58925                       # Number of squashed instructions skipped in execute
system.cpu0.iew.exec_swp                            0                       # number of swp insts executed
system.cpu0.iew.exec_nop                            0                       # number of nop insts executed
system.cpu0.iew.exec_refs                      731235                       # number of memory reference insts executed
system.cpu0.iew.exec_branches                  562420                       # Number of branches executed
system.cpu0.iew.exec_stores                     36231                       # Number of stores executed
system.cpu0.iew.exec_rate                    0.145611                       # Inst execution rate
system.cpu0.iew.wb_sent                       4377567                       # cumulative count of insts sent to commit
system.cpu0.iew.wb_count                      4366763                       # cumulative count of insts written-back
system.cpu0.iew.wb_producers                  3163421                       # num instructions producing a value
system.cpu0.iew.wb_consumers                  5079348                       # num instructions consuming a value
system.cpu0.iew.wb_rate                      0.143010                       # insts written-back per cycle
system.cpu0.iew.wb_fanout                    0.622801                       # average fanout of values written-back
system.cpu0.commit.commitSquashedInsts        3633717                       # The number of squashed insts skipped by commit
system.cpu0.commit.branchMispredicts            51995                       # The number of times a branch was mispredicted
system.cpu0.commit.committed_per_cycle::samples     30005206                       # Number of insts commited each cycle
system.cpu0.commit.committed_per_cycle::mean     0.086695                       # Number of insts commited each cycle
system.cpu0.commit.committed_per_cycle::stdev     0.534846                       # Number of insts commited each cycle
system.cpu0.commit.committed_per_cycle::underflows            0      0.00%      0.00% # Number of insts commited each cycle
system.cpu0.commit.committed_per_cycle::0     28852941     96.16%     96.16% # Number of insts commited each cycle
system.cpu0.commit.committed_per_cycle::1       535776      1.79%     97.95% # Number of insts commited each cycle
system.cpu0.commit.committed_per_cycle::2       129625      0.43%     98.38% # Number of insts commited each cycle
system.cpu0.commit.committed_per_cycle::3       354830      1.18%     99.56% # Number of insts commited each cycle
system.cpu0.commit.committed_per_cycle::4        53302      0.18%     99.74% # Number of insts commited each cycle
system.cpu0.commit.committed_per_cycle::5        30146      0.10%     99.84% # Number of insts commited each cycle
system.cpu0.commit.committed_per_cycle::6         3738      0.01%     99.85% # Number of insts commited each cycle
system.cpu0.commit.committed_per_cycle::7         3351      0.01%     99.86% # Number of insts commited each cycle
system.cpu0.commit.committed_per_cycle::8        41497      0.14%    100.00% # Number of insts commited each cycle
system.cpu0.commit.committed_per_cycle::overflows            0      0.00%    100.00% # Number of insts commited each cycle
system.cpu0.commit.committed_per_cycle::min_value            0                       # Number of insts commited each cycle
system.cpu0.commit.committed_per_cycle::max_value            8                       # Number of insts commited each cycle
system.cpu0.commit.committed_per_cycle::total     30005206                       # Number of insts commited each cycle
system.cpu0.commit.committedInsts             1301813                       # Number of instructions committed
system.cpu0.commit.committedOps               2601315                       # Number of ops (including micro ops) committed
system.cpu0.commit.swp_count                        0                       # Number of s/w prefetches committed
system.cpu0.commit.refs                        522465                       # Number of memory references committed
system.cpu0.commit.loads                       501023                       # Number of loads committed
system.cpu0.commit.membars                          0                       # Number of memory barriers committed
system.cpu0.commit.branches                    478016                       # Number of branches committed
system.cpu0.commit.vec_insts                        0                       # Number of committed Vector instructions.
system.cpu0.commit.fp_insts                      8510                       # Number of committed floating point instructions.
system.cpu0.commit.int_insts                  2592708                       # Number of committed integer instructions.
system.cpu0.commit.function_calls                3775                       # Number of function calls committed.
system.cpu0.commit.op_class_0::No_OpClass         2549      0.10%      0.10% # Class of committed instruction
system.cpu0.commit.op_class_0::IntAlu         2062747     79.30%     79.39% # Class of committed instruction
system.cpu0.commit.op_class_0::IntMult            151      0.01%     79.40% # Class of committed instruction
system.cpu0.commit.op_class_0::IntDiv            6119      0.24%     79.64% # Class of committed instruction
system.cpu0.commit.op_class_0::FloatAdd          7284      0.28%     79.92% # Class of committed instruction
system.cpu0.commit.op_class_0::FloatCmp             0      0.00%     79.92% # Class of committed instruction
system.cpu0.commit.op_class_0::FloatCvt             0      0.00%     79.92% # Class of committed instruction
system.cpu0.commit.op_class_0::FloatMult            0      0.00%     79.92% # Class of committed instruction
system.cpu0.commit.op_class_0::FloatMultAcc            0      0.00%     79.92% # Class of committed instruction
system.cpu0.commit.op_class_0::FloatDiv             0      0.00%     79.92% # Class of committed instruction
system.cpu0.commit.op_class_0::FloatMisc            0      0.00%     79.92% # Class of committed instruction
system.cpu0.commit.op_class_0::FloatSqrt            0      0.00%     79.92% # Class of committed instruction
system.cpu0.commit.op_class_0::SimdAdd              0      0.00%     79.92% # Class of committed instruction
system.cpu0.commit.op_class_0::SimdAddAcc            0      0.00%     79.92% # Class of committed instruction
system.cpu0.commit.op_class_0::SimdAlu              0      0.00%     79.92% # Class of committed instruction
system.cpu0.commit.op_class_0::SimdCmp              0      0.00%     79.92% # Class of committed instruction
system.cpu0.commit.op_class_0::SimdCvt              0      0.00%     79.92% # Class of committed instruction
system.cpu0.commit.op_class_0::SimdMisc             0      0.00%     79.92% # Class of committed instruction
system.cpu0.commit.op_class_0::SimdMult             0      0.00%     79.92% # Class of committed instruction
system.cpu0.commit.op_class_0::SimdMultAcc            0      0.00%     79.92% # Class of committed instruction
system.cpu0.commit.op_class_0::SimdShift            0      0.00%     79.92% # Class of committed instruction
system.cpu0.commit.op_class_0::SimdShiftAcc            0      0.00%     79.92% # Class of committed instruction
system.cpu0.commit.op_class_0::SimdSqrt             0      0.00%     79.92% # Class of committed instruction
system.cpu0.commit.op_class_0::SimdFloatAdd            0      0.00%     79.92% # Class of committed instruction
system.cpu0.commit.op_class_0::SimdFloatAlu            0      0.00%     79.92% # Class of committed instruction
system.cpu0.commit.op_class_0::SimdFloatCmp            0      0.00%     79.92% # Class of committed instruction
system.cpu0.commit.op_class_0::SimdFloatCvt            0      0.00%     79.92% # Class of committed instruction
system.cpu0.commit.op_class_0::SimdFloatDiv            0      0.00%     79.92% # Class of committed instruction
system.cpu0.commit.op_class_0::SimdFloatMisc            0      0.00%     79.92% # Class of committed instruction
system.cpu0.commit.op_class_0::SimdFloatMult            0      0.00%     79.92% # Class of committed instruction
system.cpu0.commit.op_class_0::SimdFloatMultAcc            0      0.00%     79.92% # Class of committed instruction
system.cpu0.commit.op_class_0::SimdFloatSqrt            0      0.00%     79.92% # Class of committed instruction
system.cpu0.commit.op_class_0::MemRead         499797     19.21%     99.13% # Class of committed instruction
system.cpu0.commit.op_class_0::MemWrite         21442      0.82%     99.95% # Class of committed instruction
system.cpu0.commit.op_class_0::FloatMemRead         1226      0.05%    100.00% # Class of committed instruction
system.cpu0.commit.op_class_0::FloatMemWrite            0      0.00%    100.00% # Class of committed instruction
system.cpu0.commit.op_class_0::IprAccess            0      0.00%    100.00% # Class of committed instruction
system.cpu0.commit.op_class_0::InstPrefetch            0      0.00%    100.00% # Class of committed instruction
system.cpu0.commit.op_class_0::total          2601315                       # Class of committed instruction
system.cpu0.commit.bw_lim_events                41497                       # number cycles where commit BW limit reached
system.cpu0.rob.rob_reads                    36198741                       # The number of ROB reads
system.cpu0.rob.rob_writes                   12974953                       # The number of ROB writes
system.cpu0.timesIdled                            220                       # Number of times that the entire CPU went into an idle state and unscheduled itself
system.cpu0.idleCycles                          25473                       # Total number of cycles that the CPU has spent unscheduled due to idling
system.cpu0.committedInsts                    1301813                       # Number of Instructions Simulated
system.cpu0.committedOps                      2601315                       # Number of Ops (including micro ops) Simulated
system.cpu0.cpi                             23.455468                       # CPI: Cycles Per Instruction
system.cpu0.cpi_total                       23.455468                       # CPI: Total CPI of All Threads
system.cpu0.ipc                              0.042634                       # IPC: Instructions Per Cycle
system.cpu0.ipc_total                        0.042634                       # IPC: Total IPC of All Threads
system.cpu0.int_regfile_reads                 4411691                       # number of integer regfile reads
system.cpu0.int_regfile_writes                3772126                       # number of integer regfile writes
system.cpu0.fp_regfile_reads                    21695                       # number of floating regfile reads
system.cpu0.fp_regfile_writes                   10733                       # number of floating regfile writes
system.cpu0.cc_regfile_reads                  3018101                       # number of cc regfile reads
system.cpu0.cc_regfile_writes                 1230512                       # number of cc regfile writes
system.cpu0.misc_regfile_reads                2397853                       # number of misc regfile reads
system.cpu0.dcache.tags.pwrStateResidencyTicks::UNDEFINED  15267344125                       # Cumulative time (in ticks) in various power states
system.cpu0.dcache.tags.replacements           268947                       # number of replacements
system.cpu0.dcache.tags.tagsinuse                1024                       # Cycle average of tags in use
system.cpu0.dcache.tags.total_refs             238355                       # Total number of references to valid blocks.
system.cpu0.dcache.tags.sampled_refs           268947                       # Sample count of references to valid blocks.
system.cpu0.dcache.tags.avg_refs             0.886253                       # Average number of references to valid blocks.
system.cpu0.dcache.tags.warmup_cycle                0                       # Cycle when the warmup percentage was hit.
system.cpu0.dcache.tags.occ_blocks::cpu0.data         1024                       # Average occupied blocks per requestor
system.cpu0.dcache.tags.occ_percent::cpu0.data            1                       # Average percentage of cache occupancy
system.cpu0.dcache.tags.occ_percent::total            1                       # Average percentage of cache occupancy
system.cpu0.dcache.tags.occ_task_id_blocks::1024         1024                       # Occupied blocks per task id
system.cpu0.dcache.tags.age_task_id_blocks_1024::0          135                       # Occupied blocks per task id
system.cpu0.dcache.tags.age_task_id_blocks_1024::1          792                       # Occupied blocks per task id
system.cpu0.dcache.tags.age_task_id_blocks_1024::2           97                       # Occupied blocks per task id
system.cpu0.dcache.tags.occ_task_id_percent::1024            1                       # Percentage of cache occupancy per task id
system.cpu0.dcache.tags.tag_accesses          3103327                       # Number of tag accesses
system.cpu0.dcache.tags.data_accesses         3103327                       # Number of data accesses
system.cpu0.dcache.pwrStateResidencyTicks::UNDEFINED  15267344125                       # Cumulative time (in ticks) in various power states
system.cpu0.dcache.ReadReq_hits::cpu0.data       223116                       # number of ReadReq hits
system.cpu0.dcache.ReadReq_hits::total         223116                       # number of ReadReq hits
system.cpu0.dcache.WriteReq_hits::cpu0.data        20559                       # number of WriteReq hits
system.cpu0.dcache.WriteReq_hits::total         20559                       # number of WriteReq hits
system.cpu0.dcache.demand_hits::cpu0.data       243675                       # number of demand (read+write) hits
system.cpu0.dcache.demand_hits::total          243675                       # number of demand (read+write) hits
system.cpu0.dcache.overall_hits::cpu0.data       243675                       # number of overall hits
system.cpu0.dcache.overall_hits::total         243675                       # number of overall hits
system.cpu0.dcache.ReadReq_misses::cpu0.data       464037                       # number of ReadReq misses
system.cpu0.dcache.ReadReq_misses::total       464037                       # number of ReadReq misses
system.cpu0.dcache.WriteReq_misses::cpu0.data          883                       # number of WriteReq misses
system.cpu0.dcache.WriteReq_misses::total          883                       # number of WriteReq misses
system.cpu0.dcache.demand_misses::cpu0.data       464920                       # number of demand (read+write) misses
system.cpu0.dcache.demand_misses::total        464920                       # number of demand (read+write) misses
system.cpu0.dcache.overall_misses::cpu0.data       464920                       # number of overall misses
system.cpu0.dcache.overall_misses::total       464920                       # number of overall misses
system.cpu0.dcache.ReadReq_miss_latency::cpu0.data  33819943500                       # number of ReadReq miss cycles
system.cpu0.dcache.ReadReq_miss_latency::total  33819943500                       # number of ReadReq miss cycles
system.cpu0.dcache.WriteReq_miss_latency::cpu0.data     30832999                       # number of WriteReq miss cycles
system.cpu0.dcache.WriteReq_miss_latency::total     30832999                       # number of WriteReq miss cycles
system.cpu0.dcache.demand_miss_latency::cpu0.data  33850776499                       # number of demand (read+write) miss cycles
system.cpu0.dcache.demand_miss_latency::total  33850776499                       # number of demand (read+write) miss cycles
system.cpu0.dcache.overall_miss_latency::cpu0.data  33850776499                       # number of overall miss cycles
system.cpu0.dcache.overall_miss_latency::total  33850776499                       # number of overall miss cycles
system.cpu0.dcache.ReadReq_accesses::cpu0.data       687153                       # number of ReadReq accesses(hits+misses)
system.cpu0.dcache.ReadReq_accesses::total       687153                       # number of ReadReq accesses(hits+misses)
system.cpu0.dcache.WriteReq_accesses::cpu0.data        21442                       # number of WriteReq accesses(hits+misses)
system.cpu0.dcache.WriteReq_accesses::total        21442                       # number of WriteReq accesses(hits+misses)
system.cpu0.dcache.demand_accesses::cpu0.data       708595                       # number of demand (read+write) accesses
system.cpu0.dcache.demand_accesses::total       708595                       # number of demand (read+write) accesses
system.cpu0.dcache.overall_accesses::cpu0.data       708595                       # number of overall (read+write) accesses
system.cpu0.dcache.overall_accesses::total       708595                       # number of overall (read+write) accesses
system.cpu0.dcache.ReadReq_miss_rate::cpu0.data     0.675304                       # miss rate for ReadReq accesses
system.cpu0.dcache.ReadReq_miss_rate::total     0.675304                       # miss rate for ReadReq accesses
system.cpu0.dcache.WriteReq_miss_rate::cpu0.data     0.041181                       # miss rate for WriteReq accesses
system.cpu0.dcache.WriteReq_miss_rate::total     0.041181                       # miss rate for WriteReq accesses
system.cpu0.dcache.demand_miss_rate::cpu0.data     0.656115                       # miss rate for demand accesses
system.cpu0.dcache.demand_miss_rate::total     0.656115                       # miss rate for demand accesses
system.cpu0.dcache.overall_miss_rate::cpu0.data     0.656115                       # miss rate for overall accesses
system.cpu0.dcache.overall_miss_rate::total     0.656115                       # miss rate for overall accesses
system.cpu0.dcache.ReadReq_avg_miss_latency::cpu0.data 72881.997556                       # average ReadReq miss latency
system.cpu0.dcache.ReadReq_avg_miss_latency::total 72881.997556                       # average ReadReq miss latency
system.cpu0.dcache.WriteReq_avg_miss_latency::cpu0.data 34918.458664                       # average WriteReq miss latency
system.cpu0.dcache.WriteReq_avg_miss_latency::total 34918.458664                       # average WriteReq miss latency
system.cpu0.dcache.demand_avg_miss_latency::cpu0.data 72809.895249                       # average overall miss latency
system.cpu0.dcache.demand_avg_miss_latency::total 72809.895249                       # average overall miss latency
system.cpu0.dcache.overall_avg_miss_latency::cpu0.data 72809.895249                       # average overall miss latency
[...]
system.l2.ReadSharedReq_hits::cpu0.data         79916                       # number of ReadSharedReq hits
system.l2.ReadSharedReq_hits::total             79916                       # number of ReadSharedReq hits
system.l2.demand_hits::cpu0.data                80588                       # number of demand (read+write) hits
system.l2.demand_hits::total                    80588                       # number of demand (read+write) hits
system.l2.overall_hits::cpu0.data               80588                       # number of overall hits
system.l2.overall_hits::total                   80588                       # number of overall hits
system.l2.ReadExReq_misses::cpu0.data             207                       # number of ReadExReq misses
system.l2.ReadExReq_misses::total                 207                       # number of ReadExReq misses
system.l2.ReadSharedReq_misses::cpu0.data       188152                       # number of ReadSharedReq misses
system.l2.ReadSharedReq_misses::total          188152                       # number of ReadSharedReq misses
system.l2.demand_misses::cpu0.data             188359                       # number of demand (read+write) misses
system.l2.demand_misses::total                 188359                       # number of demand (read+write) misses
system.l2.overall_misses::cpu0.data            188359                       # number of overall misses
system.l2.overall_misses::total                188359                       # number of overall misses
system.l2.ReadExReq_miss_latency::cpu0.data     21050500                       # number of ReadExReq miss cycles
system.l2.ReadExReq_miss_latency::total      21050500                       # number of ReadExReq miss cycles
system.l2.ReadSharedReq_miss_latency::cpu0.data  17920364000                       # number of ReadSharedReq miss cycles
system.l2.ReadSharedReq_miss_latency::total  17920364000                       # number of ReadSharedReq miss cycles
system.l2.demand_miss_latency::cpu0.data  17941414500                       # number of demand (read+write) miss cycles
system.l2.demand_miss_latency::total      17941414500                       # number of demand (read+write) miss cycles
system.l2.overall_miss_latency::cpu0.data  17941414500                       # number of overall miss cycles
system.l2.overall_miss_latency::total     17941414500                       # number of overall miss cycles
system.l2.WritebackDirty_accesses::writebacks         2567                       # number of WritebackDirty accesses(hits+misses)
system.l2.WritebackDirty_accesses::total         2567                       # number of WritebackDirty accesses(hits+misses)
system.l2.ReadExReq_accesses::cpu0.data           879                       # number of ReadExReq accesses(hits+misses)
system.l2.ReadExReq_accesses::total               879                       # number of ReadExReq accesses(hits+misses)
system.l2.ReadSharedReq_accesses::cpu0.data       268068                       # number of ReadSharedReq accesses(hits+misses)
system.l2.ReadSharedReq_accesses::total        268068                       # number of ReadSharedReq accesses(hits+misses)
system.l2.demand_accesses::cpu0.data           268947                       # number of demand (read+write) accesses
system.l2.demand_accesses::total               268947                       # number of demand (read+write) accesses
system.l2.overall_accesses::cpu0.data          268947                       # number of overall (read+write) accesses
system.l2.overall_accesses::total              268947                       # number of overall (read+write) accesses
system.l2.ReadExReq_miss_rate::cpu0.data     0.235495                       # miss rate for ReadExReq accesses
system.l2.ReadExReq_miss_rate::total         0.235495                       # miss rate for ReadExReq accesses
system.l2.ReadSharedReq_miss_rate::cpu0.data     0.701882                       # miss rate for ReadSharedReq accesses
system.l2.ReadSharedReq_miss_rate::total     0.701882                       # miss rate for ReadSharedReq accesses
system.l2.demand_miss_rate::cpu0.data        0.700357                       # miss rate for demand accesses
system.l2.demand_miss_rate::total            0.700357                       # miss rate for demand accesses
system.l2.overall_miss_rate::cpu0.data       0.700357                       # miss rate for overall accesses
system.l2.overall_miss_rate::total           0.700357                       # miss rate for overall accesses
system.l2.ReadExReq_avg_miss_latency::cpu0.data 101693.236715                       # average ReadExReq miss latency
system.l2.ReadExReq_avg_miss_latency::total 101693.236715                       # average ReadExReq miss latency
system.l2.ReadSharedReq_avg_miss_latency::cpu0.data 95244.079255                       # average ReadSharedReq miss latency
system.l2.ReadSharedReq_avg_miss_latency::total 95244.079255                       # average ReadSharedReq miss latency
system.l2.demand_avg_miss_latency::cpu0.data 95251.166655                       # average overall miss latency
system.l2.demand_avg_miss_latency::total 95251.166655                       # average overall miss latency
system.l2.overall_avg_miss_latency::cpu0.data 95251.166655                       # average overall miss latency
system.l2.overall_avg_miss_latency::total 95251.166655                       # average overall miss latency
system.l2.blocked_cycles::no_mshrs                  0                       # number of cycles access was blocked
system.l2.blocked_cycles::no_targets                0                       # number of cycles access was blocked
system.l2.blocked::no_mshrs                         0                       # number of cycles access was blocked
system.l2.blocked::no_targets                       0                       # number of cycles access was blocked
system.l2.avg_blocked_cycles::no_mshrs            nan                       # average number of cycles each access was blocked
system.l2.avg_blocked_cycles::no_targets          nan                       # average number of cycles each access was blocked
system.l2.writebacks::writebacks                  278                       # number of writebacks
system.l2.writebacks::total                       278                       # number of writebacks
system.l2.ReadExReq_mshr_misses::cpu0.data          207                       # number of ReadExReq MSHR misses
system.l2.ReadExReq_mshr_misses::total            207                       # number of ReadExReq MSHR misses
system.l2.ReadSharedReq_mshr_misses::cpu0.data       188152                       # number of ReadSharedReq MSHR misses
system.l2.ReadSharedReq_mshr_misses::total       188152                       # number of ReadSharedReq MSHR misses
system.l2.demand_mshr_misses::cpu0.data        188359                       # number of demand (read+write) MSHR misses
system.l2.demand_mshr_misses::total            188359                       # number of demand (read+write) MSHR misses
system.l2.overall_mshr_misses::cpu0.data       188359                       # number of overall MSHR misses
system.l2.overall_mshr_misses::total           188359                       # number of overall MSHR misses
system.l2.ReadExReq_mshr_miss_latency::cpu0.data     18980500                       # number of ReadExReq MSHR miss cycles
system.l2.ReadExReq_mshr_miss_latency::total     18980500                       # number of ReadExReq MSHR miss cycles
system.l2.ReadSharedReq_mshr_miss_latency::cpu0.data  16038844000                       # number of ReadSharedReq MSHR miss cycles
system.l2.ReadSharedReq_mshr_miss_latency::total  16038844000                       # number of ReadSharedReq MSHR miss cycles
system.l2.demand_mshr_miss_latency::cpu0.data  16057824500                       # number of demand (read+write) MSHR miss cycles
system.l2.demand_mshr_miss_latency::total  16057824500                       # number of demand (read+write) MSHR miss cycles
system.l2.overall_mshr_miss_latency::cpu0.data  16057824500                       # number of overall MSHR miss cycles
system.l2.overall_mshr_miss_latency::total  16057824500                       # number of overall MSHR miss cycles
system.l2.ReadExReq_mshr_miss_rate::cpu0.data     0.235495                       # mshr miss rate for ReadExReq accesses
system.l2.ReadExReq_mshr_miss_rate::total     0.235495                       # mshr miss rate for ReadExReq accesses
system.l2.ReadSharedReq_mshr_miss_rate::cpu0.data     0.701882                       # mshr miss rate for ReadSharedReq accesses
system.l2.ReadSharedReq_mshr_miss_rate::total     0.701882                       # mshr miss rate for ReadSharedReq accesses
system.l2.demand_mshr_miss_rate::cpu0.data     0.700357                       # mshr miss rate for demand accesses
system.l2.demand_mshr_miss_rate::total       0.700357                       # mshr miss rate for demand accesses
system.l2.overall_mshr_miss_rate::cpu0.data     0.700357                       # mshr miss rate for overall accesses
system.l2.overall_mshr_miss_rate::total      0.700357                       # mshr miss rate for overall accesses
system.l2.ReadExReq_avg_mshr_miss_latency::cpu0.data 91693.236715                       # average ReadExReq mshr miss latency
system.l2.ReadExReq_avg_mshr_miss_latency::total 91693.236715                       # average ReadExReq mshr miss latency
system.l2.ReadSharedReq_avg_mshr_miss_latency::cpu0.data 85244.079255                       # average ReadSharedReq mshr miss latency
system.l2.ReadSharedReq_avg_mshr_miss_latency::total 85244.079255                       # average ReadSharedReq mshr miss latency
system.l2.demand_avg_mshr_miss_latency::cpu0.data 85251.166655                       # average overall mshr miss latency
system.l2.demand_avg_mshr_miss_latency::total 85251.166655                       # average overall mshr miss latency
system.l2.overall_avg_mshr_miss_latency::cpu0.data 85251.166655                       # average overall mshr miss latency
system.l2.overall_avg_mshr_miss_latency::total 85251.166655                       # average overall mshr miss latency
system.membus.snoop_filter.tot_requests        376718                       # Total number of requests made to the snoop filter.
system.membus.snoop_filter.hit_single_requests       188360                       # Number of requests hitting in the snoop filter with a single holder of the requested data.
system.membus.snoop_filter.hit_multi_requests            0                       # Number of requests hitting in the snoop filter with multiple (>1) holders of the requested data.
system.membus.snoop_filter.tot_snoops               0                       # Total number of snoops made to the snoop filter.
system.membus.snoop_filter.hit_single_snoops            0                       # Number of snoops hitting in the snoop filter with a single holder of the requested data.
system.membus.snoop_filter.hit_multi_snoops            0                       # Number of snoops hitting in the snoop filter with multiple (>1) holders of the requested data.
system.membus.pwrStateResidencyTicks::UNDEFINED  15267344125                       # Cumulative time (in ticks) in various power states
system.membus.trans_dist::ReadResp             188152                       # Transaction distribution
system.membus.trans_dist::WritebackDirty          278                       # Transaction distribution
system.membus.trans_dist::CleanEvict           188080                       # Transaction distribution
system.membus.trans_dist::ReadExReq               207                       # Transaction distribution
system.membus.trans_dist::ReadExResp              207                       # Transaction distribution
system.membus.trans_dist::ReadSharedReq        188153                       # Transaction distribution
system.membus.pkt_count_system.l2.mem_side::system.mem_ctrls.port       565077                       # Packet count per connected master and slave (bytes)
system.membus.pkt_count_system.l2.mem_side::total       565077                       # Packet count per connected master and slave (bytes)
system.membus.pkt_count::total                 565077                       # Packet count per connected master and slave (bytes)
system.membus.pkt_size_system.l2.mem_side::system.mem_ctrls.port     12072768                       # Cumulative packet size per connected master and slave (bytes)
system.membus.pkt_size_system.l2.mem_side::total     12072768                       # Cumulative packet size per connected master and slave (bytes)
system.membus.pkt_size::total                12072768                       # Cumulative packet size per connected master and slave (bytes)
system.membus.snoops                                0                       # Total snoops (count)
system.membus.snoopTraffic                          0                       # Total snoop traffic (bytes)
system.membus.snoop_fanout::samples            188360                       # Request fanout histogram
system.membus.snoop_fanout::mean                    0                       # Request fanout histogram
system.membus.snoop_fanout::stdev                   0                       # Request fanout histogram
system.membus.snoop_fanout::underflows              0      0.00%      0.00% # Request fanout histogram
system.membus.snoop_fanout::0                  188360    100.00%    100.00% # Request fanout histogram
system.membus.snoop_fanout::1                       0      0.00%    100.00% # Request fanout histogram
system.membus.snoop_fanout::overflows               0      0.00%    100.00% # Request fanout histogram
system.membus.snoop_fanout::min_value               0                       # Request fanout histogram
system.membus.snoop_fanout::max_value               0                       # Request fanout histogram
system.membus.snoop_fanout::total              188360                       # Request fanout histogram
system.membus.reqLayer8.occupancy           444261500                       # Layer occupancy (ticks)
system.membus.reqLayer8.utilization               2.9                       # Layer utilization (%)
system.membus.respLayer1.occupancy         1019526750                       # Layer occupancy (ticks)
system.membus.respLayer1.utilization              6.7                       # Layer utilization (%)
system.tol2bus.snoop_filter.tot_requests       537894                       # Total number of requests made to the snoop filter.
system.tol2bus.snoop_filter.hit_single_requests       268948                       # Number of requests hitting in the snoop filter with a single holder of the requested data.
system.tol2bus.snoop_filter.hit_multi_requests          646                       # Number of requests hitting in the snoop filter with multiple (>1) holders of the requested data.
system.tol2bus.snoop_filter.tot_snoops              1                       # Total number of snoops made to the snoop filter.
system.tol2bus.snoop_filter.hit_single_snoops            1                       # Number of snoops hitting in the snoop filter with a single holder of the requested data.
system.tol2bus.snoop_filter.hit_multi_snoops            0                       # Number of snoops hitting in the snoop filter with multiple (>1) holders of the requested data.
system.tol2bus.pwrStateResidencyTicks::UNDEFINED  15267344125                       # Cumulative time (in ticks) in various power states
system.tol2bus.trans_dist::ReadResp            268068                       # Transaction distribution
system.tol2bus.trans_dist::WritebackDirty         2845                       # Transaction distribution
system.tol2bus.trans_dist::CleanEvict          454461                       # Transaction distribution
system.tol2bus.trans_dist::ReadExReq              879                       # Transaction distribution
system.tol2bus.trans_dist::ReadExResp             879                       # Transaction distribution
system.tol2bus.trans_dist::ReadSharedReq       268068                       # Transaction distribution
system.tol2bus.pkt_count_system.cpu0.dcache.mem_side::system.l2.cpu_side       806841                       # Packet count per connected master and slave (bytes)
system.tol2bus.pkt_count::total                806841                       # Packet count per connected master and slave (bytes)
system.tol2bus.pkt_size_system.cpu0.dcache.mem_side::system.l2.cpu_side     17376896                       # Cumulative packet size per connected master and slave (bytes)
system.tol2bus.pkt_size::total               17376896                       # Cumulative packet size per connected master and slave (bytes)
system.tol2bus.snoops                          188359                       # Total snoops (count)
system.tol2bus.snoopTraffic                     17792                       # Total snoop traffic (bytes)
system.tol2bus.snoop_fanout::samples           457306                       # Request fanout histogram
system.tol2bus.snoop_fanout::mean            0.001417                       # Request fanout histogram
system.tol2bus.snoop_fanout::stdev           0.037616                       # Request fanout histogram
system.tol2bus.snoop_fanout::underflows             0      0.00%      0.00% # Request fanout histogram
system.tol2bus.snoop_fanout::0                 456658     99.86%     99.86% # Request fanout histogram
system.tol2bus.snoop_fanout::1                    648      0.14%    100.00% # Request fanout histogram
system.tol2bus.snoop_fanout::2                      0      0.00%    100.00% # Request fanout histogram
system.tol2bus.snoop_fanout::3                      0      0.00%    100.00% # Request fanout histogram
system.tol2bus.snoop_fanout::4                      0      0.00%    100.00% # Request fanout histogram
system.tol2bus.snoop_fanout::5                      0      0.00%    100.00% # Request fanout histogram
system.tol2bus.snoop_fanout::6                      0      0.00%    100.00% # Request fanout histogram
system.tol2bus.snoop_fanout::7                      0      0.00%    100.00% # Request fanout histogram
system.tol2bus.snoop_fanout::8                      0      0.00%    100.00% # Request fanout histogram
system.tol2bus.snoop_fanout::9                      0      0.00%    100.00% # Request fanout histogram
system.tol2bus.snoop_fanout::10                     0      0.00%    100.00% # Request fanout histogram
system.tol2bus.snoop_fanout::11                     0      0.00%    100.00% # Request fanout histogram
system.tol2bus.snoop_fanout::12                     0      0.00%    100.00% # Request fanout histogram
system.tol2bus.snoop_fanout::13                     0      0.00%    100.00% # Request fanout histogram
system.tol2bus.snoop_fanout::14                     0      0.00%    100.00% # Request fanout histogram
system.tol2bus.snoop_fanout::15                     0      0.00%    100.00% # Request fanout histogram
system.tol2bus.snoop_fanout::16                     0      0.00%    100.00% # Request fanout histogram
system.tol2bus.snoop_fanout::overflows              0      0.00%    100.00% # Request fanout histogram
system.tol2bus.snoop_fanout::min_value              0                       # Request fanout histogram
system.tol2bus.snoop_fanout::max_value              1                       # Request fanout histogram
system.tol2bus.snoop_fanout::total             457306                       # Request fanout histogram
system.tol2bus.reqLayer0.occupancy          271514000                       # Layer occupancy (ticks)
system.tol2bus.reqLayer0.utilization              1.8                       # Layer utilization (%)
system.tol2bus.respLayer1.occupancy         403420500                       # Layer occupancy (ticks)
system.tol2bus.respLayer1.utilization             2.6                       # Layer utilization (%)

---------- End Simulation Statistics   ----------
