
---------- Begin Simulation Statistics ----------
sim_seconds                                  0.015267                       # Number of seconds simulated
sim_ticks                                 15267344125                       # Number of ticks simulated
final_tick                               1801546606750                       # Number of ticks from beginning of simulation (restored from checkpoints and never reset)
sim_freq                                 1000000000000                       # Frequency of simulated ticks
host_inst_rate                               18111043                       # Simulator instruction rate (inst/s)
host_op_rate                                 32916267                       # Simulator op (including micro ops) rate (op/s)
host_tick_rate                               68219819                       # Simulator tick rate (ticks/s)
host_mem_usage                                2332676                       # Number of bytes of host memory used
host_seconds                                   223.80                       # Real time elapsed on the host
sim_insts                                  4053184257                       # Number of instructions simulated
sim_ops                                    7366538908                       # Number of ops (including micro ops) simulated
system.voltage_domain.voltage                       1                       # Voltage in Volts
system.clk_domain.clock                          1000                       # Clock period in ticks
system.mem_ctrls.pwrStateResidencyTicks::UNDEFINED  15267344125                       # Cumulative time (in ticks) in various power states
system.mem_ctrls.bytes_read::cpu0.data         913408                       # Number of bytes read from this memory
system.mem_ctrls.bytes_read::total             913408                       # Number of bytes read from this memory
system.mem_ctrls.bytes_written::writebacks       861248                       # Number of bytes written to this memory
system.mem_ctrls.bytes_written::total          861248                       # Number of bytes written to this memory
system.mem_ctrls.num_reads::cpu0.data           14272                       # Number of read requests responded to by this memory
system.mem_ctrls.num_reads::total               14272                       # Number of read requests responded to by this memory
system.mem_ctrls.num_writes::writebacks         13457                       # Number of write requests responded to by this memory
system.mem_ctrls.num_writes::total              13457                       # Number of write requests responded to by this memory
system.mem_ctrls.bw_read::cpu0.data          59827563                       # Total read bandwidth from this memory (bytes/s)
system.mem_ctrls.bw_read::total              59827563                       # Total read bandwidth from this memory (bytes/s)
system.mem_ctrls.bw_write::writebacks        56411121                       # Write bandwidth from this memory (bytes/s)
system.mem_ctrls.bw_write::total             56411121                       # Write bandwidth from this memory (bytes/s)
system.mem_ctrls.bw_total::writebacks        56411121                       # Total bandwidth to/from this memory (bytes/s)
system.mem_ctrls.bw_total::cpu0.data         59827563                       # Total bandwidth to/from this memory (bytes/s)
system.mem_ctrls.bw_total::total            116238685                       # Total bandwidth to/from this memory (bytes/s)
system.mem_ctrls.readReqs                       14272                       # Number of read requests accepted
system.mem_ctrls.writeReqs                      13457                       # Number of write requests accepted
system.mem_ctrls.readBursts                     14272                       # Number of DRAM read bursts, including those serviced by the write queue
system.mem_ctrls.writeBursts                    13457                       # Number of DRAM write bursts, including those merged in the write queue
system.mem_ctrls.bytesReadDRAM                 913408                       # Total number of bytes read from DRAM
system.mem_ctrls.bytesReadWrQ                       0                       # Total number of bytes read from write queue
system.mem_ctrls.bytesWritten                  860672                       # Total number of bytes written to DRAM
system.mem_ctrls.bytesReadSys                  913408                       # Total read bytes from the system interface side
system.mem_ctrls.bytesWrittenSys               861248                       # Total written bytes from the system interface side
system.mem_ctrls.servicedByWrQ                      0                       # Number of DRAM read bursts serviced by the write queue
system.mem_ctrls.mergedWrBursts                     0                       # Number of DRAM write bursts merged with an existing one
system.mem_ctrls.neitherReadNorWriteReqs            0                       # Number of requests that are neither read nor write
system.mem_ctrls.perBankRdBursts::0               922                       # Per bank write bursts
system.mem_ctrls.perBankRdBursts::1               905                       # Per bank write bursts
system.mem_ctrls.perBankRdBursts::2               918                       # Per bank write bursts
system.mem_ctrls.perBankRdBursts::3               872                       # Per bank write bursts
system.mem_ctrls.perBankRdBursts::4               768                       # Per bank write bursts
system.mem_ctrls.perBankRdBursts::5               768                       # Per bank write bursts
system.mem_ctrls.perBankRdBursts::6               768                       # Per bank write bursts
system.mem_ctrls.perBankRdBursts::7               769                       # Per bank write bursts
system.mem_ctrls.perBankRdBursts::8               811                       # Per bank write bursts
system.mem_ctrls.perBankRdBursts::9               896                       # Per bank write bursts
system.mem_ctrls.perBankRdBursts::10              896                       # Per bank write bursts
system.mem_ctrls.perBankRdBursts::11              974                       # Per bank write bursts
system.mem_ctrls.perBankRdBursts::12             1024                       # Per bank write bursts
system.mem_ctrls.perBankRdBursts::13             1046                       # Per bank write bursts
system.mem_ctrls.perBankRdBursts::14             1024                       # Per bank write bursts
system.mem_ctrls.perBankRdBursts::15              911                       # Per bank write bursts
system.mem_ctrls.perBankWrBursts::0               923                       # Per bank write bursts
system.mem_ctrls.perBankWrBursts::1               879                       # Per bank write bursts
system.mem_ctrls.perBankWrBursts::2               884                       # Per bank write bursts
system.mem_ctrls.perBankWrBursts::3               870                       # Per bank write bursts
system.mem_ctrls.perBankWrBursts::4               768                       # Per bank write bursts
system.mem_ctrls.perBankWrBursts::5               768                       # Per bank write bursts
system.mem_ctrls.perBankWrBursts::6               768                       # Per bank write bursts
system.mem_ctrls.perBankWrBursts::7               748                       # Per bank write bursts
system.mem_ctrls.perBankWrBursts::8               793                       # Per bank write bursts
system.mem_ctrls.perBankWrBursts::9               768                       # Per bank write bursts
system.mem_ctrls.perBankWrBursts::10              768                       # Per bank write bursts
system.mem_ctrls.perBankWrBursts::11              846                       # Per bank write bursts
system.mem_ctrls.perBankWrBursts::12              881                       # Per bank write bursts
system.mem_ctrls.perBankWrBursts::13              918                       # Per bank write bursts
system.mem_ctrls.perBankWrBursts::14              968                       # Per bank write bursts
system.mem_ctrls.perBankWrBursts::15              898                       # Per bank write bursts
system.mem_ctrls.numRdRetry                         0                       # Number of times read queue was full causing retry
system.mem_ctrls.numWrRetry                         0                       # Number of times write queue was full causing retry
system.mem_ctrls.totGap                   15266900000                       # Total gap between requests
system.mem_ctrls.readPktSize::0                     0                       # Read request sizes (log2)
system.mem_ctrls.readPktSize::1                     0                       # Read request sizes (log2)
system.mem_ctrls.readPktSize::2                     0                       # Read request sizes (log2)
system.mem_ctrls.readPktSize::3                     0                       # Read request sizes (log2)
system.mem_ctrls.readPktSize::4                     0                       # Read request sizes (log2)
system.mem_ctrls.readPktSize::5                     0                       # Read request sizes (log2)
system.mem_ctrls.readPktSize::6                 14272                       # Read request sizes (log2)
system.mem_ctrls.writePktSize::0                    0                       # Write request sizes (log2)
system.mem_ctrls.writePktSize::1                    0                       # Write request sizes (log2)
system.mem_ctrls.writePktSize::2                    0                       # Write request sizes (log2)
system.mem_ctrls.writePktSize::3                    0                       # Write request sizes (log2)
system.mem_ctrls.writePktSize::4                    0                       # Write request sizes (log2)
system.mem_ctrls.writePktSize::5                    0                       # Write request sizes (log2)
system.mem_ctrls.writePktSize::6                13457                       # Write request sizes (log2)
system.mem_ctrls.rdQLenPdf::0                   14272                       # What read queue length does an incoming req see
system.mem_ctrls.rdQLenPdf::1                       0                       # What read queue length does an incoming req see
system.mem_ctrls.rdQLenPdf::2                       0                       # What read queue length does an incoming req see
system.mem_ctrls.rdQLenPdf::3                       0                       # What read queue length does an incoming req see
system.mem_ctrls.rdQLenPdf::4                       0                       # What read queue length does an incoming req see
system.mem_ctrls.rdQLenPdf::5                       0                       # What read queue length does an incoming req see
system.mem_ctrls.rdQLenPdf::6                       0                       # What read queue length does an incoming req see
system.mem_ctrls.rdQLenPdf::7                       0                       # What read queue length does an incoming req see
system.mem_ctrls.rdQLenPdf::8                       0                       # What read queue length does an incoming req see
system.mem_ctrls.rdQLenPdf::9                       0                       # What read queue length does an incoming req see
system.mem_ctrls.rdQLenPdf::10                      0                       # What read queue length does an incoming req see
system.mem_ctrls.rdQLenPdf::11                      0                       # What read queue length does an incoming req see
system.mem_ctrls.rdQLenPdf::12                      0                       # What read queue length does an incoming req see
system.mem_ctrls.rdQLenPdf::13                      0                       # What read queue length does an incoming req see
system.mem_ctrls.rdQLenPdf::14                      0                       # What read queue length does an incoming req see
system.mem_ctrls.rdQLenPdf::15                      0                       # What read queue length does an incoming req see
system.mem_ctrls.rdQLenPdf::16                      0                       # What read queue length does an incoming req see
system.mem_ctrls.rdQLenPdf::17                      0                       # What read queue length does an incoming req see
system.mem_ctrls.rdQLenPdf::18                      0                       # What read queue length does an incoming req see
system.mem_ctrls.rdQLenPdf::19                      0                       # What read queue length does an incoming req see
system.mem_ctrls.rdQLenPdf::20                      0                       # What read queue length does an incoming req see
system.mem_ctrls.rdQLenPdf::21                      0                       # What read queue length does an incoming req see
system.mem_ctrls.rdQLenPdf::22                      0                       # What read queue length does an incoming req see
system.mem_ctrls.rdQLenPdf::23                      0                       # What read queue length does an incoming req see
system.mem_ctrls.rdQLenPdf::24                      0                       # What read queue length does an incoming req see
system.mem_ctrls.rdQLenPdf::25                      0                       # What read queue length does an incoming req see
system.mem_ctrls.rdQLenPdf::26                      0                       # What read queue length does an incoming req see
system.mem_ctrls.rdQLenPdf::27                      0                       # What read queue length does an incoming req see
system.mem_ctrls.rdQLenPdf::28                      0                       # What read queue length does an incoming req see
system.mem_ctrls.rdQLenPdf::29                      0                       # What read queue length does an incoming req see
system.mem_ctrls.rdQLenPdf::30                      0                       # What read queue length does an incoming req see
system.mem_ctrls.rdQLenPdf::31                      0                       # What read queue length does an incoming req see
system.mem_ctrls.wrQLenPdf::0                       0                       # What write queue length does an incoming req see
system.mem_ctrls.wrQLenPdf::1                       0                       # What write queue length does an incoming req see
system.mem_ctrls.wrQLenPdf::2                       0                       # What write queue length does an incoming req see
system.mem_ctrls.wrQLenPdf::3                       0                       # What write queue length does an incoming req see
system.mem_ctrls.wrQLenPdf::4                       0                       # What write queue length does an incoming req see
system.mem_ctrls.wrQLenPdf::5                       0                       # What write queue length does an incoming req see
system.mem_ctrls.wrQLenPdf::6                       0                       # What write queue length does an incoming req see
system.mem_ctrls.wrQLenPdf::7                       0                       # What write queue length does an incoming req see
system.mem_ctrls.wrQLenPdf::8                       0                       # What write queue length does an incoming req see
system.mem_ctrls.wrQLenPdf::9                       0                       # What write queue length does an incoming req see
system.mem_ctrls.wrQLenPdf::10                      0                       # What write queue length does an incoming req see
system.mem_ctrls.wrQLenPdf::11                      0                       # What write queue length does an incoming req see
system.mem_ctrls.wrQLenPdf::12                      0                       # What write queue length does an incoming req see
system.mem_ctrls.wrQLenPdf::13                      0                       # What write queue length does an incoming req see
system.mem_ctrls.wrQLenPdf::14                      0                       # What write queue length does an incoming req see
system.mem_ctrls.wrQLenPdf::15                    731                       # What write queue length does an incoming req see
system.mem_ctrls.wrQLenPdf::16                    733                       # What write queue length does an incoming req see
system.mem_ctrls.wrQLenPdf::17                    749                       # What write queue length does an incoming req see
system.mem_ctrls.wrQLenPdf::18                    749                       # What write queue length does an incoming req see
system.mem_ctrls.wrQLenPdf::19                    749                       # What write queue length does an incoming req see
system.mem_ctrls.wrQLenPdf::20                    750                       # What write queue length does an incoming req see
system.mem_ctrls.wrQLenPdf::21                    750                       # What write queue length does an incoming req see
system.mem_ctrls.wrQLenPdf::22                    750                       # What write queue length does an incoming req see
system.mem_ctrls.wrQLenPdf::23                    750                       # What write queue length does an incoming req see
system.mem_ctrls.wrQLenPdf::24                    750                       # What write queue length does an incoming req see
system.mem_ctrls.wrQLenPdf::25                    750                       # What write queue length does an incoming req see
system.mem_ctrls.wrQLenPdf::26                    750                       # What write queue length does an incoming req see
system.mem_ctrls.wrQLenPdf::27                    750                       # What write queue length does an incoming req see
system.mem_ctrls.wrQLenPdf::28                    750                       # What write queue length does an incoming req see
system.mem_ctrls.wrQLenPdf::29                    749                       # What write queue length does an incoming req see
system.mem_ctrls.wrQLenPdf::30                    749                       # What write queue length does an incoming req see
system.mem_ctrls.wrQLenPdf::31                    749                       # What write queue length does an incoming req see
system.mem_ctrls.wrQLenPdf::32                    749                       # What write queue length does an incoming req see
system.mem_ctrls.wrQLenPdf::33                      0                       # What write queue length does an incoming req see
system.mem_ctrls.wrQLenPdf::34                      0                       # What write queue length does an incoming req see
system.mem_ctrls.wrQLenPdf::35                      0                       # What write queue length does an incoming req see
system.mem_ctrls.wrQLenPdf::36                      0                       # What write queue length does an incoming req see
system.mem_ctrls.wrQLenPdf::37                      0                       # What write queue length does an incoming req see
system.mem_ctrls.wrQLenPdf::38                      0                       # What write queue length does an incoming req see
system.mem_ctrls.wrQLenPdf::39                      0                       # What write queue length does an incoming req see
system.mem_ctrls.wrQLenPdf::40                      0                       # What write queue length does an incoming req see
system.mem_ctrls.wrQLenPdf::41                      0                       # What write queue length does an incoming req see
system.mem_ctrls.wrQLenPdf::42                      0                       # What write queue length does an incoming req see
system.mem_ctrls.wrQLenPdf::43                      0                       # What write queue length does an incoming req see
system.mem_ctrls.wrQLenPdf::44                      0                       # What write queue length does an incoming req see
system.mem_ctrls.wrQLenPdf::45                      0                       # What write queue length does an incoming req see
system.mem_ctrls.wrQLenPdf::46                      0                       # What write queue length does an incoming req see
system.mem_ctrls.wrQLenPdf::47                      0                       # What write queue length does an incoming req see
system.mem_ctrls.wrQLenPdf::48                      0                       # What write queue length does an incoming req see
system.mem_ctrls.wrQLenPdf::49                      0                       # What write queue length does an incoming req see
system.mem_ctrls.wrQLenPdf::50                      0                       # What write queue length does an incoming req see
system.mem_ctrls.wrQLenPdf::51                      0                       # What write queue length does an incoming req see
system.mem_ctrls.wrQLenPdf::52                      0                       # What write queue length does an incoming req see
system.mem_ctrls.wrQLenPdf::53                      0                       # What write queue length does an incoming req see
system.mem_ctrls.wrQLenPdf::54                      0                       # What write queue length does an incoming req see
system.mem_ctrls.wrQLenPdf::55                      0                       # What write queue length does an incoming req see
system.mem_ctrls.wrQLenPdf::56                      0                       # What write queue length does an incoming req see
system.mem_ctrls.wrQLenPdf::57                      0                       # What write queue length does an incoming req see
system.mem_ctrls.wrQLenPdf::58                      0                       # What write queue length does an incoming req see
system.mem_ctrls.wrQLenPdf::59                      0                       # What write queue length does an incoming req see
system.mem_ctrls.wrQLenPdf::60                      0                       # What write queue length does an incoming req see
system.mem_ctrls.wrQLenPdf::61                      0                       # What write queue length does an incoming req see
system.mem_ctrls.wrQLenPdf::62                      0                       # What write queue length does an incoming req see
system.mem_ctrls.wrQLenPdf::63                      0                       # What write queue length does an incoming req see
system.mem_ctrls.bytesPerActivate::samples         5953                       # Bytes accessed per row activation
system.mem_ctrls.bytesPerActivate::mean    298.046699                       # Bytes accessed per row activation
system.mem_ctrls.bytesPerActivate::gmean   185.095274                       # Bytes accessed per row activation
system.mem_ctrls.bytesPerActivate::stdev   292.266548                       # Bytes accessed per row activation
system.mem_ctrls.bytesPerActivate::0-127         2361     39.66%     39.66% # Bytes accessed per row activation
system.mem_ctrls.bytesPerActivate::128-255          807     13.56%     53.22% # Bytes accessed per row activation
system.mem_ctrls.bytesPerActivate::256-383          570      9.58%     62.79% # Bytes accessed per row activation
system.mem_ctrls.bytesPerActivate::384-511         1446     24.29%     87.08% # Bytes accessed per row activation
system.mem_ctrls.bytesPerActivate::512-639           54      0.91%     87.99% # Bytes accessed per row activation
system.mem_ctrls.bytesPerActivate::640-767           47      0.79%     88.78% # Bytes accessed per row activation
system.mem_ctrls.bytesPerActivate::768-895           53      0.89%     89.67% # Bytes accessed per row activation
system.mem_ctrls.bytesPerActivate::896-1023           88      1.48%     91.15% # Bytes accessed per row activation
system.mem_ctrls.bytesPerActivate::1024-1151          527      8.85%    100.00% # Bytes accessed per row activation
system.mem_ctrls.bytesPerActivate::total         5953                       # Bytes accessed per row activation
system.mem_ctrls.rdPerTurnAround::samples          749                       # Reads before turning the bus around for writes
system.mem_ctrls.rdPerTurnAround::mean      19.040053                       # Reads before turning the bus around for writes
system.mem_ctrls.rdPerTurnAround::gmean     18.372068                       # Reads before turning the bus around for writes
system.mem_ctrls.rdPerTurnAround::stdev     11.464010                       # Reads before turning the bus around for writes
system.mem_ctrls.rdPerTurnAround::16-23           733     97.86%     97.86% # Reads before turning the bus around for writes
system.mem_ctrls.rdPerTurnAround::24-31             9      1.20%     99.07% # Reads before turning the bus around for writes
system.mem_ctrls.rdPerTurnAround::40-47             1      0.13%     99.20% # Reads before turning the bus around for writes
system.mem_ctrls.rdPerTurnAround::80-87             1      0.13%     99.33% # Reads before turning the bus around for writes
system.mem_ctrls.rdPerTurnAround::88-95             2      0.27%     99.60% # Reads before turning the bus around for writes
system.mem_ctrls.rdPerTurnAround::112-119            1      0.13%     99.73% # Reads before turning the bus around for writes
system.mem_ctrls.rdPerTurnAround::184-191            1      0.13%     99.87% # Reads before turning the bus around for writes
system.mem_ctrls.rdPerTurnAround::224-231            1      0.13%    100.00% # Reads before turning the bus around for writes
system.mem_ctrls.rdPerTurnAround::total           749                       # Reads before turning the bus around for writes
system.mem_ctrls.wrPerTurnAround::samples          749                       # Writes before turning the bus around for reads
system.mem_ctrls.wrPerTurnAround::mean      17.954606                       # Writes before turning the bus around for reads
system.mem_ctrls.wrPerTurnAround::gmean     17.952028                       # Writes before turning the bus around for reads
system.mem_ctrls.wrPerTurnAround::stdev      0.293551                       # Writes before turning the bus around for reads
system.mem_ctrls.wrPerTurnAround::16               16      2.14%      2.14% # Writes before turning the bus around for reads
system.mem_ctrls.wrPerTurnAround::17                2      0.27%      2.40% # Writes before turning the bus around for reads
system.mem_ctrls.wrPerTurnAround::18              731     97.60%    100.00% # Writes before turning the bus around for reads
system.mem_ctrls.wrPerTurnAround::total           749                       # Writes before turning the bus around for reads
system.mem_ctrls.totQLat                    382194500                       # Total ticks spent queuing
system.mem_ctrls.totMemAccLat               649794500                       # Total ticks spent from burst creation until serviced by the DRAM
system.mem_ctrls.totBusLat                   71360000                       # Total ticks spent in databus transfers
system.mem_ctrls.avgQLat                     26779.32                       # Average queueing delay per DRAM burst
system.mem_ctrls.avgBusLat                    5000.00                       # Average bus latency per DRAM burst
system.mem_ctrls.avgMemAccLat                45529.32                       # Average memory access latency per DRAM burst
system.mem_ctrls.avgRdBW                        59.83                       # Average DRAM read bandwidth in MiByte/s
system.mem_ctrls.avgWrBW                        56.37                       # Average achieved write bandwidth in MiByte/s
system.mem_ctrls.avgRdBWSys                     59.83                       # Average system read bandwidth in MiByte/s
system.mem_ctrls.avgWrBWSys                     56.41                       # Average system write bandwidth in MiByte/s
system.mem_ctrls.peakBW                      12800.00                       # Theoretical peak bandwidth in MiByte/s
system.mem_ctrls.busUtil                         0.91                       # Data bus utilization in percentage
system.mem_ctrls.busUtilRead                     0.47                       # Data bus utilization in percentage for reads
system.mem_ctrls.busUtilWrite                    0.44                       # Data bus utilization in percentage for writes
system.mem_ctrls.avgRdQLen                       1.00                       # Average read queue length when enqueuing
system.mem_ctrls.avgWrQLen                      24.58                       # Average write queue length when enqueuing
system.mem_ctrls.readRowHits                    10371                       # Number of row buffer hits during reads
system.mem_ctrls.writeRowHits                   11398                       # Number of row buffer hits during writes
system.mem_ctrls.readRowHitRate                 72.67                       # Row buffer hit rate for reads
system.mem_ctrls.writeRowHitRate                84.70                       # Row buffer hit rate for writes
system.mem_ctrls.avgGap                     550575.21                       # Average gap between requests
system.mem_ctrls.pageHitRate                    78.51                       # Row buffer hit rate, read and write combined
system.mem_ctrls_0.actEnergy                 20270460                       # Energy for activate commands per rank (pJ)
system.mem_ctrls_0.preEnergy                 10777800                       # Energy for precharge commands per rank (pJ)
system.mem_ctrls_0.readEnergy                47766600                       # Energy for read commands per rank (pJ)
system.mem_ctrls_0.writeEnergy               34493760                       # Energy for write commands per rank (pJ)
system.mem_ctrls_0.refreshEnergy         1152450000.000000                       # Energy for refresh commands per rank (pJ)
system.mem_ctrls_0.actBackEnergy            667583430                       # Energy for active background per rank (pJ)
system.mem_ctrls_0.preBackEnergy             57685440                       # Energy for precharge background per rank (pJ)
system.mem_ctrls_0.actPowerDownEnergy      3380909970                       # Energy for active power-down per rank (pJ)
system.mem_ctrls_0.prePowerDownEnergy      1252640160                       # Energy for precharge power-down per rank (pJ)
system.mem_ctrls_0.selfRefreshEnergy        890050320                       # Energy for self refresh per rank (pJ)
system.mem_ctrls_0.totalEnergy             7514848740                       # Total energy per rank (pJ)
system.mem_ctrls_0.averagePower            492.217158                       # Core power per rank (mW)
system.mem_ctrls_0.totalIdleTime          13652713125                       # Total Idle time Per DRAM Rank
system.mem_ctrls_0.memoryStateTime::IDLE     99506000                       # Time in different power states
system.mem_ctrls_0.memoryStateTime::REF     489415250                       # Time in different power states
system.mem_ctrls_0.memoryStateTime::SREF   2976330250                       # Time in different power states
system.mem_ctrls_0.memoryStateTime::PRE_PDN   3262027500                       # Time in different power states
system.mem_ctrls_0.memoryStateTime::ACT    1025709750                       # Time in different power states
system.mem_ctrls_0.memoryStateTime::ACT_PDN   7414355375                       # Time in different power states
system.mem_ctrls_1.actEnergy                 22219680                       # Energy for activate commands per rank (pJ)
system.mem_ctrls_1.preEnergy                 11813835                       # Energy for precharge commands per rank (pJ)
system.mem_ctrls_1.readEnergy                54135480                       # Energy for read commands per rank (pJ)
system.mem_ctrls_1.writeEnergy               35704800                       # Energy for write commands per rank (pJ)
system.mem_ctrls_1.refreshEnergy         1253865600.000000                       # Energy for refresh commands per rank (pJ)
system.mem_ctrls_1.actBackEnergy            783999090                       # Energy for active background per rank (pJ)
system.mem_ctrls_1.preBackEnergy             59948160                       # Energy for precharge background per rank (pJ)
system.mem_ctrls_1.actPowerDownEnergy      3701757270                       # Energy for active power-down per rank (pJ)
system.mem_ctrls_1.prePowerDownEnergy      1344916800                       # Energy for precharge power-down per rank (pJ)
system.mem_ctrls_1.selfRefreshEnergy        606884460                       # Energy for self refresh per rank (pJ)
system.mem_ctrls_1.totalEnergy             7875273255                       # Total energy per rank (pJ)
system.mem_ctrls_1.averagePower            515.824703                       # Core power per rank (mW)
system.mem_ctrls_1.totalIdleTime          13391129875                       # Total Idle time Per DRAM Rank
system.mem_ctrls_1.memoryStateTime::IDLE    100839500                       # Time in different power states
system.mem_ctrls_1.memoryStateTime::REF     532380000                       # Time in different power states
system.mem_ctrls_1.memoryStateTime::SREF   1771590250                       # Time in different power states
system.mem_ctrls_1.memoryStateTime::PRE_PDN   3502311750                       # Time in different power states
system.mem_ctrls_1.memoryStateTime::ACT    1242270500                       # Time in different power states
system.mem_ctrls_1.memoryStateTime::ACT_PDN   8117952125                       # Time in different power states
system.pwrStateResidencyTicks::UNDEFINED  15267344125                       # Cumulative time (in ticks) in various power states
system.cpu0.branchPred.lookups                5244402                       # Number of BP lookups
system.cpu0.branchPred.condPredicted          5244402                       # Number of conditional branches predicted
system.cpu0.branchPred.condIncorrect           104405                       # Number of conditional branches incorrect
system.cpu0.branchPred.BTBLookups             3605294                       # Number of BTB lookups
system.cpu0.branchPred.BTBHits                      0                       # Number of BTB hits
system.cpu0.branchPred.BTBCorrect                   0                       # Number of correct BTB predictions (this stat may not work properly.
system.cpu0.branchPred.BTBHitPct             0.000000                       # BTB Hit Percentage
system.cpu0.branchPred.usedRAS                 728985                       # Number of times the RAS was used to get a target.
system.cpu0.branchPred.RASInCorrect                 7                       # Number of incorrect RAS predictions.
system.cpu0.branchPred.indirectLookups        3605294                       # Number of indirect predictor lookups.
system.cpu0.branchPred.indirectHits           2535094                       # Number of indirect target hits.
system.cpu0.branchPred.indirectMisses         1070200                       # Number of indirect misses.
system.cpu0.branchPredindirectMispredicted           15                       # Number of mispredicted indirect branches.
system.cpu_voltage_domain.voltage                   1                       # Voltage in Volts
system.cpu_clk_domain.clock                       500                       # Clock period in ticks
system.cpu0.dtb.walker.pwrStateResidencyTicks::UNDEFINED  15267344125                       # Cumulative time (in ticks) in various power states
system.cpu0.dtb.rdAccesses                    8897130                       # TLB accesses on read requests
system.cpu0.dtb.wrAccesses                    2102971                       # TLB accesses on write requests
system.cpu0.dtb.rdMisses                          240                       # TLB misses on read requests
system.cpu0.dtb.wrMisses                            0                       # TLB misses on write requests
system.cpu0.apic_clk_domain.clock                8000                       # Clock period in ticks
system.cpu0.interrupts.pwrStateResidencyTicks::UNDEFINED  15267344125                       # Cumulative time (in ticks) in various power states
system.cpu0.itb.walker.pwrStateResidencyTicks::UNDEFINED  15267344125                       # Cumulative time (in ticks) in various power states
system.cpu0.itb.rdAccesses                          0                       # TLB accesses on read requests
system.cpu0.itb.wrAccesses                    6243139                       # TLB accesses on write requests
system.cpu0.itb.rdMisses                            0                       # TLB misses on read requests
system.cpu0.itb.wrMisses                            0                       # TLB misses on write requests
system.cpu0.workload.numSyscalls                    0                       # Number of system calls
system.cpu0.pwrStateResidencyTicks::ON    15267344125                       # Cumulative time (in ticks) in various power states
system.cpu0.numCycles                        30534688                       # number of cpu cycles simulated
system.cpu0.numWorkItemsStarted                     0                       # number of work items this cpu started
system.cpu0.numWorkItemsCompleted                   0                       # number of work items this cpu completed
system.cpu0.fetch.icacheStallCycles           6298901                       # Number of cycles fetch is stalled on an Icache miss
system.cpu0.fetch.Insts                      46152937                       # Number of instructions fetch has processed
system.cpu0.fetch.Branches                    5244402                       # Number of branches that fetch encountered
system.cpu0.fetch.predictedBranches           3264079                       # Number of branches that fetch has predicted taken
system.cpu0.fetch.Cycles                     24131279                       # Number of cycles fetch has run and was not squashing or blocked
system.cpu0.fetch.SquashCycles                 209016                       # Number of cycles fetch has spent squashing
system.cpu0.fetch.CacheLines                  6243139                       # Number of cache lines fetched
system.cpu0.fetch.IcacheSquashes                48722                       # Number of outstanding Icache misses that were squashed
system.cpu0.fetch.rateDist::samples          30534688                       # Number of instructions fetched each cycle (Total)
system.cpu0.fetch.rateDist::mean             2.642176                       # Number of instructions fetched each cycle (Total)
system.cpu0.fetch.rateDist::stdev            3.358587                       # Number of instructions fetched each cycle (Total)
system.cpu0.fetch.rateDist::underflows              0      0.00%      0.00% # Number of instructions fetched each cycle (Total)
system.cpu0.fetch.rateDist::0                16813088     55.06%     55.06% # Number of instructions fetched each cycle (Total)
system.cpu0.fetch.rateDist::1                  701200      2.30%     57.36% # Number of instructions fetched each cycle (Total)
system.cpu0.fetch.rateDist::2                 1658023      5.43%     62.79% # Number of instructions fetched each cycle (Total)
system.cpu0.fetch.rateDist::3                  686449      2.25%     65.04% # Number of instructions fetched each cycle (Total)
system.cpu0.fetch.rateDist::4                 1026117      3.36%     68.40% # Number of instructions fetched each cycle (Total)
system.cpu0.fetch.rateDist::5                 1574248      5.16%     73.55% # Number of instructions fetched each cycle (Total)
system.cpu0.fetch.rateDist::6                  580231      1.90%     75.45% # Number of instructions fetched each cycle (Total)
system.cpu0.fetch.rateDist::7                  818327      2.68%     78.13% # Number of instructions fetched each cycle (Total)
system.cpu0.fetch.rateDist::8                 6677005     21.87%    100.00% # Number of instructions fetched each cycle (Total)
system.cpu0.fetch.rateDist::overflows               0      0.00%    100.00% # Number of instructions fetched each cycle (Total)
system.cpu0.fetch.rateDist::min_value               0                       # Number of instructions fetched each cycle (Total)
system.cpu0.fetch.rateDist::max_value               8                       # Number of instructions fetched each cycle (Total)
system.cpu0.fetch.rateDist::total            30534688                       # Number of instructions fetched each cycle (Total)
system.cpu0.fetch.branchRate                 0.171752                       # Number of branch fetches per cycle
system.cpu0.fetch.rate                       1.511492                       # Number of inst fetches per cycle
system.cpu0.decode.IdleCycles                 4068936                       # Number of cycles decode is idle
system.cpu0.decode.BlockedCycles             15887971                       # Number of cycles decode is blocked
system.cpu0.decode.RunCycles                  6078254                       # Number of cycles decode is running
system.cpu0.decode.UnblockCycles              4395019                       # Number of cycles decode is unblocking
system.cpu0.decode.SquashCycles                104508                       # Number of cycles decode is squashing
system.cpu0.decode.DecodedInsts              77284498                       # Number of instructions handled by decode
system.cpu0.rename.SquashCycles                104508                       # Number of cycles rename is squashing
system.cpu0.rename.IdleCycles                 5789092                       # Number of cycles rename is idle
system.cpu0.rename.BlockCycles                5690232                       # Number of cycles rename is blocking
system.cpu0.rename.serializeStallCycles             0                       # count of cycles rename stalled for serializing inst
system.cpu0.rename.RunCycles                  8694203                       # Number of cycles rename is running
system.cpu0.rename.UnblockCycles             10256653                       # Number of cycles rename is unblocking
system.cpu0.rename.RenamedInsts              76773252                       # Number of instructions processed by rename
system.cpu0.rename.ROBFullEvents               223563                       # Number of times rename has blocked due to ROB full
system.cpu0.rename.IQFullEvents               9168693                       # Number of times rename has blocked due to IQ full
system.cpu0.rename.RenamedOperands           82544862                       # Number of destination operands rename has renamed
system.cpu0.rename.RenameLookups            182428819                       # Number of register rename lookups that rename has made
system.cpu0.rename.int_rename_lookups        60129078                       # Number of integer rename lookups
system.cpu0.rename.fp_rename_lookups         74693741                       # Number of floating rename lookups
system.cpu0.rename.CommittedMaps             70587314                       # Number of HB maps that are committed
system.cpu0.rename.UndoneMaps                11957676                       # Number of HB maps that are undone due to squashing
system.cpu0.rename.serializingInsts                 0                       # count of serializing insts renamed
system.cpu0.rename.tempSerializingInsts             0                       # count of temporary serializing insts renamed
system.cpu0.rename.skidInsts                 23545058                       # count of insts added to the skid buffer
system.cpu0.memDep0.insertedLoads             9465400                       # Number of loads inserted to the mem dependence unit.
system.cpu0.memDep0.insertedStores            2105203                       # Number of stores inserted to the mem dependence unit.
system.cpu0.memDep0.conflictingLoads           426460                       # Number of conflicting loads.
system.cpu0.memDep0.conflictingStores          185076                       # Number of conflicting stores.
system.cpu0.iq.iqInstsAdded                  76132297                       # Number of instructions added to the IQ (excludes non-spec)
system.cpu0.iq.iqInstsIssued                 70691710                       # Number of instructions issued
system.cpu0.iq.iqSquashedInstsExamined       10147028                       # Number of squashed instructions iterated over during squash; mainly for profiling
system.cpu0.iq.iqSquashedOperandsExamined     14646826                       # Number of squashed operands that are examined and possibly removed from graph
system.cpu0.iq.issued_per_cycle::samples     30534688                       # Number of insts issued each cycle
system.cpu0.iq.issued_per_cycle::mean        2.315128                       # Number of insts issued each cycle
system.cpu0.iq.issued_per_cycle::stdev       1.961548                       # Number of insts issued each cycle
system.cpu0.iq.issued_per_cycle::underflows            0      0.00%      0.00% # Number of insts issued each cycle
system.cpu0.iq.issued_per_cycle::0            6369690     20.86%     20.86% # Number of insts issued each cycle
system.cpu0.iq.issued_per_cycle::1            6109609     20.01%     40.87% # Number of insts issued each cycle
system.cpu0.iq.issued_per_cycle::2            5655003     18.52%     59.39% # Number of insts issued each cycle
system.cpu0.iq.issued_per_cycle::3            4838960     15.85%     75.24% # Number of insts issued each cycle
system.cpu0.iq.issued_per_cycle::4            3004303      9.84%     85.08% # Number of insts issued each cycle
system.cpu0.iq.issued_per_cycle::5            1960425      6.42%     91.50% # Number of insts issued each cycle
system.cpu0.iq.issued_per_cycle::6            1582476      5.18%     96.68% # Number of insts issued each cycle
system.cpu0.iq.issued_per_cycle::7             672754      2.20%     98.88% # Number of insts issued each cycle
system.cpu0.iq.issued_per_cycle::8             341468      1.12%    100.00% # Number of insts issued each cycle
system.cpu0.iq.issued_per_cycle::overflows            0      0.00%    100.00% # Number of insts issued each cycle
system.cpu0.iq.issued_per_cycle::min_value            0                       # Number of insts issued each cycle
system.cpu0.iq.issued_per_cycle::max_value            8                       # Number of insts issued each cycle
system.cpu0.iq.issued_per_cycle::total       30534688                       # Number of insts issued each cycle
system.cpu0.iq.fu_full::No_OpClass                  0      0.00%      0.00% # attempts to use FU when none available
system.cpu0.iq.fu_full::IntAlu                     16      0.02%      0.02% # attempts to use FU when none available
system.cpu0.iq.fu_full::IntMult                     0      0.00%      0.02% # attempts to use FU when none available
system.cpu0.iq.fu_full::IntDiv                      0      0.00%      0.02% # attempts to use FU when none available
system.cpu0.iq.fu_full::FloatAdd               100895     99.80%     99.82% # attempts to use FU when none available
system.cpu0.iq.fu_full::FloatCmp                    0      0.00%     99.82% # attempts to use FU when none available
system.cpu0.iq.fu_full::FloatCvt                    0      0.00%     99.82% # attempts to use FU when none available
system.cpu0.iq.fu_full::FloatMult                   0      0.00%     99.82% # attempts to use FU when none available
system.cpu0.iq.fu_full::FloatMultAcc                0      0.00%     99.82% # attempts to use FU when none available
system.cpu0.iq.fu_full::FloatDiv                    0      0.00%     99.82% # attempts to use FU when none available
system.cpu0.iq.fu_full::FloatMisc                   0      0.00%     99.82% # attempts to use FU when none available
system.cpu0.iq.fu_full::FloatSqrt                   0      0.00%     99.82% # attempts to use FU when none available
system.cpu0.iq.fu_full::SimdAdd                     0      0.00%     99.82% # attempts to use FU when none available
system.cpu0.iq.fu_full::SimdAddAcc                  0      0.00%     99.82% # attempts to use FU when none available
system.cpu0.iq.fu_full::SimdAlu                     0      0.00%     99.82% # attempts to use FU when none available
system.cpu0.iq.fu_full::SimdCmp                     0      0.00%     99.82% # attempts to use FU when none available
system.cpu0.iq.fu_full::SimdCvt                     0      0.00%     99.82% # attempts to use FU when none available
system.cpu0.iq.fu_full::SimdMisc                    0      0.00%     99.82% # attempts to use FU when none available
system.cpu0.iq.fu_full::SimdMult                    0      0.00%     99.82% # attempts to use FU when none available
system.cpu0.iq.fu_full::SimdMultAcc                 0      0.00%     99.82% # attempts to use FU when none available
system.cpu0.iq.fu_full::SimdShift                   0      0.00%     99.82% # attempts to use FU when none available
system.cpu0.iq.fu_full::SimdShiftAcc                0      0.00%     99.82% # attempts to use FU when none available
system.cpu0.iq.fu_full::SimdSqrt                    0      0.00%     99.82% # attempts to use FU when none available
system.cpu0.iq.fu_full::SimdFloatAdd                0      0.00%     99.82% # attempts to use FU when none available
system.cpu0.iq.fu_full::SimdFloatAlu                0      0.00%     99.82% # attempts to use FU when none available
system.cpu0.iq.fu_full::SimdFloatCmp                0      0.00%     99.82% # attempts to use FU when none available
system.cpu0.iq.fu_full::SimdFloatCvt                0      0.00%     99.82% # attempts to use FU when none available
system.cpu0.iq.fu_full::SimdFloatDiv                0      0.00%     99.82% # attempts to use FU when none available
system.cpu0.iq.fu_full::SimdFloatMisc               0      0.00%     99.82% # attempts to use FU when none available
system.cpu0.iq.fu_full::SimdFloatMult               0      0.00%     99.82% # attempts to use FU when none available
system.cpu0.iq.fu_full::SimdFloatMultAcc            0      0.00%     99.82% # attempts to use FU when none available
system.cpu0.iq.fu_full::SimdFloatSqrt               0      0.00%     99.82% # attempts to use FU when none available
system.cpu0.iq.fu_full::MemRead                   182      0.18%    100.00% # attempts to use FU when none available
system.cpu0.iq.fu_full::MemWrite                    0      0.00%    100.00% # attempts to use FU when none available
system.cpu0.iq.fu_full::FloatMemRead                0      0.00%    100.00% # attempts to use FU when none available
system.cpu0.iq.fu_full::FloatMemWrite               0      0.00%    100.00% # attempts to use FU when none available
system.cpu0.iq.fu_full::IprAccess                   0      0.00%    100.00% # attempts to use FU when none available
system.cpu0.iq.fu_full::InstPrefetch                0      0.00%    100.00% # attempts to use FU when none available
system.cpu0.iq.FU_type_0::No_OpClass             6221      0.01%      0.01% # Type of FU issued
system.cpu0.iq.FU_type_0::IntAlu             36770816     52.02%     52.02% # Type of FU issued
system.cpu0.iq.FU_type_0::IntMult                   0      0.00%     52.02% # Type of FU issued
system.cpu0.iq.FU_type_0::IntDiv                    0      0.00%     52.02% # Type of FU issued
system.cpu0.iq.FU_type_0::FloatAdd           22939243     32.45%     84.47% # Type of FU issued
system.cpu0.iq.FU_type_0::FloatCmp                  0      0.00%     84.47% # Type of FU issued
system.cpu0.iq.FU_type_0::FloatCvt                  0      0.00%     84.47% # Type of FU issued
system.cpu0.iq.FU_type_0::FloatMult                 0      0.00%     84.47% # Type of FU issued
system.cpu0.iq.FU_type_0::FloatMultAcc              0      0.00%     84.47% # Type of FU issued
system.cpu0.iq.FU_type_0::FloatDiv                  0      0.00%     84.47% # Type of FU issued
system.cpu0.iq.FU_type_0::FloatMisc                 0      0.00%     84.47% # Type of FU issued
system.cpu0.iq.FU_type_0::FloatSqrt                 0      0.00%     84.47% # Type of FU issued
system.cpu0.iq.FU_type_0::SimdAdd                   0      0.00%     84.47% # Type of FU issued
system.cpu0.iq.FU_type_0::SimdAddAcc                0      0.00%     84.47% # Type of FU issued
system.cpu0.iq.FU_type_0::SimdAlu                   0      0.00%     84.47% # Type of FU issued
system.cpu0.iq.FU_type_0::SimdCmp                   0      0.00%     84.47% # Type of FU issued
system.cpu0.iq.FU_type_0::SimdCvt                   0      0.00%     84.47% # Type of FU issued
system.cpu0.iq.FU_type_0::SimdMisc                  0      0.00%     84.47% # Type of FU issued
system.cpu0.iq.FU_type_0::SimdMult                  0      0.00%     84.47% # Type of FU issued
system.cpu0.iq.FU_type_0::SimdMultAcc               0      0.00%     84.47% # Type of FU issued
system.cpu0.iq.FU_type_0::SimdShift                 0      0.00%     84.47% # Type of FU issued
system.cpu0.iq.FU_type_0::SimdShiftAcc              0      0.00%     84.47% # Type of FU issued
system.cpu0.iq.FU_type_0::SimdSqrt                  0      0.00%     84.47% # Type of FU issued
system.cpu0.iq.FU_type_0::SimdFloatAdd              0      0.00%     84.47% # Type of FU issued
system.cpu0.iq.FU_type_0::SimdFloatAlu              0      0.00%     84.47% # Type of FU issued
system.cpu0.iq.FU_type_0::SimdFloatCmp              0      0.00%     84.47% # Type of FU issued
system.cpu0.iq.FU_type_0::SimdFloatCvt              0      0.00%     84.47% # Type of FU issued
system.cpu0.iq.FU_type_0::SimdFloatDiv              0      0.00%     84.47% # Type of FU issued
system.cpu0.iq.FU_type_0::SimdFloatMisc             0      0.00%     84.47% # Type of FU issued
system.cpu0.iq.FU_type_0::SimdFloatMult             0      0.00%     84.47% # Type of FU issued
system.cpu0.iq.FU_type_0::SimdFloatMultAcc            0      0.00%     84.47% # Type of FU issued
system.cpu0.iq.FU_type_0::SimdFloatSqrt             0      0.00%     84.47% # Type of FU issued
system.cpu0.iq.FU_type_0::MemRead             1962354      2.78%     87.25% # Type of FU issued
system.cpu0.iq.FU_type_0::MemWrite            1475124      2.09%     89.34% # Type of FU issued
system.cpu0.iq.FU_type_0::FloatMemRead        6909547      9.77%     99.11% # Type of FU issued
system.cpu0.iq.FU_type_0::FloatMemWrite        628405      0.89%    100.00% # Type of FU issued
system.cpu0.iq.FU_type_0::IprAccess                 0      0.00%    100.00% # Type of FU issued
system.cpu0.iq.FU_type_0::InstPrefetch              0      0.00%    100.00% # Type of FU issued
system.cpu0.iq.FU_type_0::total              70691710                       # Type of FU issued
system.cpu0.iq.rate                          2.315128                       # Inst issue rate
system.cpu0.iq.fu_busy_cnt                     101093                       # FU busy when requested
system.cpu0.iq.fu_busy_rate                  0.001430                       # FU busy rate (busy events/executed inst)
system.cpu0.iq.int_inst_queue_reads          97462079                       # Number of integer instruction queue reads
system.cpu0.iq.int_inst_queue_writes         37330040                       # Number of integer instruction queue writes
system.cpu0.iq.int_inst_queue_wakeup_accesses     33402671                       # Number of integer instruction queue wakeup accesses
system.cpu0.iq.fp_inst_queue_reads           74557130                       # Number of floating instruction queue reads
system.cpu0.iq.fp_inst_queue_writes          48949388                       # Number of floating instruction queue writes
system.cpu0.iq.fp_inst_queue_wakeup_accesses     37085507                       # Number of floating instruction queue wakeup accesses
system.cpu0.iq.vec_inst_queue_reads                 0                       # Number of vector instruction queue reads
system.cpu0.iq.vec_inst_queue_writes                0                       # Number of vector instruction queue writes
system.cpu0.iq.vec_inst_queue_wakeup_accesses            0                       # Number of vector instruction queue wakeup accesses
system.cpu0.iq.int_alu_accesses              33457566                       # Number of integer alu accesses
system.cpu0.iq.fp_alu_accesses               37329016                       # Number of floating point alu accesses
system.cpu0.iq.vec_alu_accesses                     0                       # Number of vector alu accesses
system.cpu0.iew.lsq.thread0.forwLoads          420170                       # Number of loads that had data forwarded from stores
system.cpu0.iew.lsq.thread0.invAddrLoads            0                       # Number of loads ignored due to an invalid address
system.cpu0.iew.lsq.thread0.squashedLoads      1343818                       # Number of loads squashed
system.cpu0.iew.lsq.thread0.ignoredResponses            3                       # Number of memory responses ignored because the instruction is squashed
system.cpu0.iew.lsq.thread0.memOrderViolation          103                       # Number of memory ordering violations
system.cpu0.iew.lsq.thread0.squashedStores         3476                       # Number of stores squashed
system.cpu0.iew.lsq.thread0.invAddrSwpfs            0                       # Number of software prefetches ignored due to an invalid address
system.cpu0.iew.lsq.thread0.blockedLoads            0                       # Number of blocked loads due to partial load-store forwarding
system.cpu0.iew.lsq.thread0.rescheduledLoads            4                       # Number of loads that were rescheduled
system.cpu0.iew.lsq.thread0.cacheBlocked            0                       # Number of times an access to memory failed due to the cache being blocked
system.cpu0.iew.iewIdleCycles                       0                       # Number of cycles IEW is idle
system.cpu0.iew.iewSquashCycles                104508                       # Number of cycles IEW is squashing
system.cpu0.iew.iewBlockCycles                3334872                       # Number of cycles IEW is blocking
system.cpu0.iew.iewUnblockCycles               119621                       # Number of cycles IEW is unblocking
system.cpu0.iew.iewDispatchedInsts           76132297                       # Number of instructions dispatched to IQ
system.cpu0.iew.iewDispSquashedInsts                0                       # Number of squashed instructions skipped by dispatch
system.cpu0.iew.iewDispLoadInsts              9465400                       # Number of dispatched load instructions
system.cpu0.iew.iewDispStoreInsts             2105203                       # Number of dispatched store instructions
system.cpu0.iew.iewDispNonSpecInsts                 0                       # Number of dispatched non-speculative instructions
system.cpu0.iew.iewIQFullEvents                106200                       # Number of times the IQ has become full, causing a stall
system.cpu0.iew.iewLSQFullEvents                    0                       # Number of times the LSQ has become full, causing a stall
system.cpu0.iew.memOrderViolationEvents           103                       # Number of memory order violations
system.cpu0.iew.predictedTakenIncorrect         59613                       # Number of branches that were predicted taken incorrectly
system.cpu0.iew.predictedNotTakenIncorrect        44801                       # Number of branches that were predicted not taken incorrectly
system.cpu0.iew.branchMispredicts              104414                       # Number of branch mispredicts detected at execute
system.cpu0.iew.iewExecutedInsts             70496826                       # Number of executed instructions
system.cpu0.iew.iewExecLoadInsts              8870842                       # Number of load instructions executed
system.cpu0.iew.iewExecSquashedInsts           194892                       # Number of squashed instructions skipped in execute
system.cpu0.iew.exec_swp                            0                       # number of swp insts executed
system.cpu0.iew.exec_nop                            0                       # number of nop insts executed
system.cpu0.iew.exec_refs                    10973813                       # number of memory reference insts executed
system.cpu0.iew.exec_branches                 4721346                       # Number of branches executed
system.cpu0.iew.exec_stores                   2102971                       # Number of stores executed
system.cpu0.iew.exec_rate                    2.308746                       # Inst execution rate
system.cpu0.iew.wb_sent                      70492648                       # cumulative count of insts sent to commit
system.cpu0.iew.wb_count                     70488178                       # cumulative count of insts written-back
system.cpu0.iew.wb_producers                 52502627                       # num instructions producing a value
system.cpu0.iew.wb_consumers                 92455364                       # num instructions consuming a value
system.cpu0.iew.wb_rate                      2.308462                       # insts written-back per cycle
system.cpu0.iew.wb_fanout                    0.567870                       # average fanout of values written-back
system.cpu0.commit.commitSquashedInsts       10147028                       # The number of squashed insts skipped by commit
system.cpu0.commit.branchMispredicts           104405                       # The number of times a branch was mispredicted
system.cpu0.commit.committed_per_cycle::samples     29236732                       # Number of insts commited each cycle
system.cpu0.commit.committed_per_cycle::mean     2.256934                       # Number of insts commited each cycle
system.cpu0.commit.committed_per_cycle::stdev     2.863301                       # Number of insts commited each cycle
system.cpu0.commit.committed_per_cycle::underflows            0      0.00%      0.00% # Number of insts commited each cycle
system.cpu0.commit.committed_per_cycle::0     10974057     37.54%     37.54% # Number of insts commited each cycle
system.cpu0.commit.committed_per_cycle::1      7519973     25.72%     63.26% # Number of insts commited each cycle
system.cpu0.commit.committed_per_cycle::2      1057904      3.62%     66.87% # Number of insts commited each cycle
system.cpu0.commit.committed_per_cycle::3      2906892      9.94%     76.82% # Number of insts commited each cycle
system.cpu0.commit.committed_per_cycle::4      1140742      3.90%     80.72% # Number of insts commited each cycle
system.cpu0.commit.committed_per_cycle::5       217467      0.74%     81.46% # Number of insts commited each cycle
system.cpu0.commit.committed_per_cycle::6       421605      1.44%     82.90% # Number of insts commited each cycle
system.cpu0.commit.committed_per_cycle::7       535740      1.83%     84.74% # Number of insts commited each cycle
system.cpu0.commit.committed_per_cycle::8      4462352     15.26%    100.00% # Number of insts commited each cycle
system.cpu0.commit.committed_per_cycle::overflows            0      0.00%    100.00% # Number of insts commited each cycle
system.cpu0.commit.committed_per_cycle::min_value            0                       # Number of insts commited each cycle
system.cpu0.commit.committed_per_cycle::max_value            8                       # Number of insts commited each cycle
system.cpu0.commit.committed_per_cycle::total     29236732                       # Number of insts commited each cycle
system.cpu0.commit.committedInsts            37172268                       # Number of instructions committed
system.cpu0.commit.committedOps              65985386                       # Number of ops (including micro ops) committed
system.cpu0.commit.swp_count                        0                       # Number of s/w prefetches committed
system.cpu0.commit.refs                      10223328                       # Number of memory references committed
system.cpu0.commit.loads                      8121600                       # Number of loads committed
system.cpu0.commit.membars                          0                       # Number of memory barriers committed
system.cpu0.commit.branches                   4619481                       # Number of branches committed
system.cpu0.commit.vec_insts                        0                       # Number of committed Vector instructions.
system.cpu0.commit.fp_insts                  34123383                       # Number of committed floating point instructions.
system.cpu0.commit.int_insts                 40957450                       # Number of committed integer instructions.
system.cpu0.commit.function_calls              628389                       # Number of function calls committed.
system.cpu0.commit.op_class_0::No_OpClass         6001      0.01%      0.01% # Class of committed instruction
system.cpu0.commit.op_class_0::IntAlu        34295602     51.97%     51.98% # Class of committed instruction
system.cpu0.commit.op_class_0::IntMult              0      0.00%     51.98% # Class of committed instruction
system.cpu0.commit.op_class_0::IntDiv               0      0.00%     51.98% # Class of committed instruction
system.cpu0.commit.op_class_0::FloatAdd      21460455     32.52%     84.51% # Class of committed instruction
system.cpu0.commit.op_class_0::FloatCmp             0      0.00%     84.51% # Class of committed instruction
system.cpu0.commit.op_class_0::FloatCvt             0      0.00%     84.51% # Class of committed instruction
system.cpu0.commit.op_class_0::FloatMult            0      0.00%     84.51% # Class of committed instruction
system.cpu0.commit.op_class_0::FloatMultAcc            0      0.00%     84.51% # Class of committed instruction
system.cpu0.commit.op_class_0::FloatDiv             0      0.00%     84.51% # Class of committed instruction
system.cpu0.commit.op_class_0::FloatMisc            0      0.00%     84.51% # Class of committed instruction
system.cpu0.commit.op_class_0::FloatSqrt            0      0.00%     84.51% # Class of committed instruction
system.cpu0.commit.op_class_0::SimdAdd              0      0.00%     84.51% # Class of committed instruction
system.cpu0.commit.op_class_0::SimdAddAcc            0      0.00%     84.51% # Class of committed instruction
system.cpu0.commit.op_class_0::SimdAlu              0      0.00%     84.51% # Class of committed instruction
system.cpu0.commit.op_class_0::SimdCmp              0      0.00%     84.51% # Class of committed instruction
system.cpu0.commit.op_class_0::SimdCvt              0      0.00%     84.51% # Class of committed instruction
system.cpu0.commit.op_class_0::SimdMisc             0      0.00%     84.51% # Class of committed instruction
system.cpu0.commit.op_class_0::SimdMult             0      0.00%     84.51% # Class of committed instruction
system.cpu0.commit.op_class_0::SimdMultAcc            0      0.00%     84.51% # Class of committed instruction
system.cpu0.commit.op_class_0::SimdShift            0      0.00%     84.51% # Class of committed instruction
system.cpu0.commit.op_class_0::SimdShiftAcc            0      0.00%     84.51% # Class of committed instruction
system.cpu0.commit.op_class_0::SimdSqrt             0      0.00%     84.51% # Class of committed instruction
system.cpu0.commit.op_class_0::SimdFloatAdd            0      0.00%     84.51% # Class of committed instruction
system.cpu0.commit.op_class_0::SimdFloatAlu            0      0.00%     84.51% # Class of committed instruction
system.cpu0.commit.op_class_0::SimdFloatCmp            0      0.00%     84.51% # Class of committed instruction
system.cpu0.commit.op_class_0::SimdFloatCvt            0      0.00%     84.51% # Class of committed instruction
system.cpu0.commit.op_class_0::SimdFloatDiv            0      0.00%     84.51% # Class of committed instruction
system.cpu0.commit.op_class_0::SimdFloatMisc            0      0.00%     84.51% # Class of committed instruction
system.cpu0.commit.op_class_0::SimdFloatMult            0      0.00%     84.51% # Class of committed instruction
system.cpu0.commit.op_class_0::SimdFloatMultAcc            0      0.00%     84.51% # Class of committed instruction
system.cpu0.commit.op_class_0::SimdFloatSqrt            0      0.00%     84.51% # Class of committed instruction
system.cpu0.commit.op_class_0::MemRead        1952634      2.96%     87.47% # Class of committed instruction
system.cpu0.commit.op_class_0::MemWrite       1473334      2.23%     89.70% # Class of committed instruction
system.cpu0.commit.op_class_0::FloatMemRead      6168966      9.35%     99.05% # Class of committed instruction
system.cpu0.commit.op_class_0::FloatMemWrite       628394      0.95%    100.00% # Class of committed instruction
system.cpu0.commit.op_class_0::IprAccess            0      0.00%    100.00% # Class of committed instruction
system.cpu0.commit.op_class_0::InstPrefetch            0      0.00%    100.00% # Class of committed instruction
system.cpu0.commit.op_class_0::total         65985386                       # Class of committed instruction
system.cpu0.commit.bw_lim_events              4462352                       # number cycles where commit BW limit reached
system.cpu0.rob.rob_reads                   100906794                       # The number of ROB reads
system.cpu0.rob.rob_writes                  153562690                       # The number of ROB writes
system.cpu0.committedInsts                   37172268                       # Number of Instructions Simulated
system.cpu0.committedOps                     65985386                       # Number of Ops (including micro ops) Simulated
system.cpu0.cpi                              0.821437                       # CPI: Cycles Per Instruction
system.cpu0.cpi_total                        0.821437                       # CPI: Total CPI of All Threads
system.cpu0.ipc                              1.217378                       # IPC: Instructions Per Cycle
system.cpu0.ipc_total                        1.217378                       # IPC: Total IPC of All Threads
system.cpu0.int_regfile_reads                56166941                       # number of integer regfile reads
system.cpu0.int_regfile_writes               28554649                       # number of integer regfile writes
system.cpu0.fp_regfile_reads                 64669383                       # number of floating regfile reads
system.cpu0.fp_regfile_writes                33221066                       # number of floating regfile writes
system.cpu0.cc_regfile_reads                 20652283                       # number of cc regfile reads
system.cpu0.cc_regfile_writes                13414882                       # number of cc regfile writes
system.cpu0.misc_regfile_reads               24098437                       # number of misc regfile reads
system.cpu0.dcache.tags.pwrStateResidencyTicks::UNDEFINED  15267344125                       # Cumulative time (in ticks) in various power states
system.cpu0.dcache.tags.replacements            14289                       # number of replacements
system.cpu0.dcache.tags.tagsinuse                1024                       # Cycle average of tags in use
system.cpu0.dcache.tags.total_refs            1090692                       # Total number of references to valid blocks.
system.cpu0.dcache.tags.sampled_refs            14289                       # Sample count of references to valid blocks.
system.cpu0.dcache.tags.avg_refs            76.330884                       # Average number of references to valid blocks.
system.cpu0.dcache.tags.warmup_cycle                0                       # Cycle when the warmup percentage was hit.
system.cpu0.dcache.tags.occ_blocks::cpu0.data         1024                       # Average occupied blocks per requestor
system.cpu0.dcache.tags.occ_percent::cpu0.data            1                       # Average percentage of cache occupancy
system.cpu0.dcache.tags.occ_percent::total            1                       # Average percentage of cache occupancy
system.cpu0.dcache.tags.occ_task_id_blocks::1024         1024                       # Occupied blocks per task id
system.cpu0.dcache.tags.age_task_id_blocks_1024::0            8                       # Occupied blocks per task id
system.cpu0.dcache.tags.age_task_id_blocks_1024::1           84                       # Occupied blocks per task id
system.cpu0.dcache.tags.age_task_id_blocks_1024::2          707                       # Occupied blocks per task id
system.cpu0.dcache.tags.age_task_id_blocks_1024::3            6                       # Occupied blocks per task id
system.cpu0.dcache.tags.age_task_id_blocks_1024::4          219                       # Occupied blocks per task id
system.cpu0.dcache.tags.occ_task_id_percent::1024            1                       # Percentage of cache occupancy per task id
system.cpu0.dcache.tags.tag_accesses         42328993                       # Number of tag accesses
system.cpu0.dcache.tags.data_accesses        42328993                       # Number of data accesses
system.cpu0.dcache.pwrStateResidencyTicks::UNDEFINED  15267344125                       # Cumulative time (in ticks) in various power states
system.cpu0.dcache.ReadReq_hits::cpu0.data      8462580                       # number of ReadReq hits
system.cpu0.dcache.ReadReq_hits::total        8462580                       # number of ReadReq hits
system.cpu0.dcache.WriteReq_hits::cpu0.data      2101728                       # number of WriteReq hits
system.cpu0.dcache.WriteReq_hits::total       2101728                       # number of WriteReq hits
system.cpu0.dcache.demand_hits::cpu0.data     10564308                       # number of demand (read+write) hits
system.cpu0.dcache.demand_hits::total        10564308                       # number of demand (read+write) hits
system.cpu0.dcache.overall_hits::cpu0.data     10564308                       # number of overall hits
system.cpu0.dcache.overall_hits::total       10564308                       # number of overall hits
system.cpu0.dcache.ReadReq_misses::cpu0.data        14368                       # number of ReadReq misses
system.cpu0.dcache.ReadReq_misses::total        14368                       # number of ReadReq misses
system.cpu0.dcache.demand_misses::cpu0.data        14368                       # number of demand (read+write) misses
system.cpu0.dcache.demand_misses::total         14368                       # number of demand (read+write) misses
system.cpu0.dcache.overall_misses::cpu0.data        14368                       # number of overall misses
system.cpu0.dcache.overall_misses::total        14368                       # number of overall misses
system.cpu0.dcache.ReadReq_miss_latency::cpu0.data   1420989000                       # number of ReadReq miss cycles
system.cpu0.dcache.ReadReq_miss_latency::total   1420989000                       # number of ReadReq miss cycles
system.cpu0.dcache.demand_miss_latency::cpu0.data   1420989000                       # number of demand (read+write) miss cycles
system.cpu0.dcache.demand_miss_latency::total   1420989000                       # number of demand (read+write) miss cycles
system.cpu0.dcache.overall_miss_latency::cpu0.data   1420989000                       # number of overall miss cycles
system.cpu0.dcache.overall_miss_latency::total   1420989000                       # number of overall miss cycles
system.cpu0.dcache.ReadReq_accesses::cpu0.data      8476948                       # number of ReadReq accesses(hits+misses)
system.cpu0.dcache.ReadReq_accesses::total      8476948                       # number of ReadReq accesses(hits+misses)
system.cpu0.dcache.WriteReq_accesses::cpu0.data      2101728                       # number of WriteReq accesses(hits+misses)
system.cpu0.dcache.WriteReq_accesses::total      2101728                       # number of WriteReq accesses(hits+misses)
system.cpu0.dcache.demand_accesses::cpu0.data     10578676                       # number of demand (read+write) accesses
system.cpu0.dcache.demand_accesses::total     10578676                       # number of demand (read+write) accesses
system.cpu0.dcache.overall_accesses::cpu0.data     10578676                       # number of overall (read+write) accesses
system.cpu0.dcache.overall_accesses::total     10578676                       # number of overall (read+write) accesses
system.cpu0.dcache.ReadReq_miss_rate::cpu0.data     0.001695                       # miss rate for ReadReq accesses
system.cpu0.dcache.ReadReq_miss_rate::total     0.001695                       # miss rate for ReadReq accesses
system.cpu0.dcache.demand_miss_rate::cpu0.data     0.001358                       # miss rate for demand accesses
system.cpu0.dcache.demand_miss_rate::total     0.001358                       # miss rate for demand accesses
system.cpu0.dcache.overall_miss_rate::cpu0.data     0.001358                       # miss rate for overall accesses
system.cpu0.dcache.overall_miss_rate::total     0.001358                       # miss rate for overall accesses
system.cpu0.dcache.ReadReq_avg_miss_latency::cpu0.data 98899.568486                       # average ReadReq miss latency
system.cpu0.dcache.ReadReq_avg_miss_latency::total 98899.568486                       # average ReadReq miss latency
system.cpu0.dcache.demand_avg_miss_latency::cpu0.data 98899.568486                       # average overall miss latency
system.cpu0.dcache.demand_avg_miss_latency::total 98899.568486                       # average overall miss latency
system.cpu0.dcache.overall_avg_miss_latency::cpu0.data 98899.568486                       # average overall miss latency
system.cpu0.dcache.overall_avg_miss_latency::total 98899.568486                       # average overall miss latency
system.cpu0.dcache.blocked_cycles::no_mshrs            0                       # number of cycles access was blocked
system.cpu0.dcache.blocked_cycles::no_targets            0                       # number of cycles access was blocked
system.cpu0.dcache.blocked::no_mshrs                0                       # number of cycles access was blocked
system.cpu0.dcache.blocked::no_targets              0                       # number of cycles access was blocked
system.cpu0.dcache.avg_blocked_cycles::no_mshrs          nan                       # average number of cycles each access was blocked
system.cpu0.dcache.avg_blocked_cycles::no_targets          nan                       # average number of cycles each access was blocked
system.cpu0.dcache.writebacks::writebacks        13448                       # number of writebacks
system.cpu0.dcache.writebacks::total            13448                       # number of writebacks
system.cpu0.dcache.ReadReq_mshr_hits::cpu0.data           79                       # number of ReadReq MSHR hits
system.cpu0.dcache.ReadReq_mshr_hits::total           79                       # number of ReadReq MSHR hits
system.cpu0.dcache.demand_mshr_hits::cpu0.data           79                       # number of demand (read+write) MSHR hits
system.cpu0.dcache.demand_mshr_hits::total           79                       # number of demand (read+write) MSHR hits
system.cpu0.dcache.overall_mshr_hits::cpu0.data           79                       # number of overall MSHR hits
system.cpu0.dcache.overall_mshr_hits::total           79                       # number of overall MSHR hits
system.cpu0.dcache.ReadReq_mshr_misses::cpu0.data        14289                       # number of ReadReq MSHR misses
system.cpu0.dcache.ReadReq_mshr_misses::total        14289                       # number of ReadReq MSHR misses
system.cpu0.dcache.demand_mshr_misses::cpu0.data        14289                       # number of demand (read+write) MSHR misses
system.cpu0.dcache.demand_mshr_misses::total        14289                       # number of demand (read+write) MSHR misses
system.cpu0.dcache.overall_mshr_misses::cpu0.data        14289                       # number of overall MSHR misses
[...]
system.l2.tags.sampled_refs                     14272                       # Sample count of references to valid blocks.
system.l2.tags.avg_refs                             1                       # Average number of references to valid blocks.
system.l2.tags.warmup_cycle                         0                       # Cycle when the warmup percentage was hit.
system.l2.tags.occ_blocks::cpu0.data            49152                       # Average occupied blocks per requestor
system.l2.tags.occ_percent::cpu0.data               1                       # Average percentage of cache occupancy
system.l2.tags.occ_percent::total                   1                       # Average percentage of cache occupancy
system.l2.tags.occ_task_id_blocks::1024         49152                       # Occupied blocks per task id
system.l2.tags.age_task_id_blocks_1024::0            8                       # Occupied blocks per task id
system.l2.tags.age_task_id_blocks_1024::1           84                       # Occupied blocks per task id
system.l2.tags.age_task_id_blocks_1024::2          835                       # Occupied blocks per task id
system.l2.tags.age_task_id_blocks_1024::3         8422                       # Occupied blocks per task id
system.l2.tags.age_task_id_blocks_1024::4        39803                       # Occupied blocks per task id
system.l2.tags.occ_task_id_percent::1024            1                       # Percentage of cache occupancy per task id
system.l2.tags.tag_accesses                    357208                       # Number of tag accesses
system.l2.tags.data_accesses                   357208                       # Number of data accesses
system.l2.pwrStateResidencyTicks::UNDEFINED  15267344125                       # Cumulative time (in ticks) in various power states
system.l2.WritebackDirty_hits::writebacks        13448                       # number of WritebackDirty hits
system.l2.WritebackDirty_hits::total            13448                       # number of WritebackDirty hits
system.l2.ReadSharedReq_hits::cpu0.data            17                       # number of ReadSharedReq hits
system.l2.ReadSharedReq_hits::total                17                       # number of ReadSharedReq hits
system.l2.demand_hits::cpu0.data                   17                       # number of demand (read+write) hits
system.l2.demand_hits::total                       17                       # number of demand (read+write) hits
system.l2.overall_hits::cpu0.data                  17                       # number of overall hits
system.l2.overall_hits::total                      17                       # number of overall hits
system.l2.ReadSharedReq_misses::cpu0.data        14272                       # number of ReadSharedReq misses
system.l2.ReadSharedReq_misses::total           14272                       # number of ReadSharedReq misses
system.l2.demand_misses::cpu0.data              14272                       # number of demand (read+write) misses
system.l2.demand_misses::total                  14272                       # number of demand (read+write) misses
system.l2.overall_misses::cpu0.data             14272                       # number of overall misses
system.l2.overall_misses::total                 14272                       # number of overall misses
system.l2.ReadSharedReq_miss_latency::cpu0.data   1378744000                       # number of ReadSharedReq miss cycles
system.l2.ReadSharedReq_miss_latency::total   1378744000                       # number of ReadSharedReq miss cycles
system.l2.demand_miss_latency::cpu0.data   1378744000                       # number of demand (read+write) miss cycles
system.l2.demand_miss_latency::total       1378744000                       # number of demand (read+write) miss cycles
system.l2.overall_miss_latency::cpu0.data   1378744000                       # number of overall miss cycles
system.l2.overall_miss_latency::total      1378744000                       # number of overall miss cycles
system.l2.WritebackDirty_accesses::writebacks        13448                       # number of WritebackDirty accesses(hits+misses)
system.l2.WritebackDirty_accesses::total        13448                       # number of WritebackDirty accesses(hits+misses)
system.l2.ReadSharedReq_accesses::cpu0.data        14289                       # number of ReadSharedReq accesses(hits+misses)
system.l2.ReadSharedReq_accesses::total         14289                       # number of ReadSharedReq accesses(hits+misses)
system.l2.demand_accesses::cpu0.data            14289                       # number of demand (read+write) accesses
system.l2.demand_accesses::total                14289                       # number of demand (read+write) accesses
system.l2.overall_accesses::cpu0.data           14289                       # number of overall (read+write) accesses
system.l2.overall_accesses::total               14289                       # number of overall (read+write) accesses
system.l2.ReadSharedReq_miss_rate::cpu0.data     0.998810                       # miss rate for ReadSharedReq accesses
system.l2.ReadSharedReq_miss_rate::total     0.998810                       # miss rate for ReadSharedReq accesses
system.l2.demand_miss_rate::cpu0.data        0.998810                       # miss rate for demand accesses
system.l2.demand_miss_rate::total            0.998810                       # miss rate for demand accesses
system.l2.overall_miss_rate::cpu0.data       0.998810                       # miss rate for overall accesses
system.l2.overall_miss_rate::total           0.998810                       # miss rate for overall accesses
system.l2.ReadSharedReq_avg_miss_latency::cpu0.data 96604.820628                       # average ReadSharedReq miss latency
system.l2.ReadSharedReq_avg_miss_latency::total 96604.820628                       # average ReadSharedReq miss latency
system.l2.demand_avg_miss_latency::cpu0.data 96604.820628                       # average overall miss latency
system.l2.demand_avg_miss_latency::total 96604.820628                       # average overall miss latency
system.l2.overall_avg_miss_latency::cpu0.data 96604.820628                       # average overall miss latency
system.l2.overall_avg_miss_latency::total 96604.820628                       # average overall miss latency
system.l2.blocked_cycles::no_mshrs                  0                       # number of cycles access was blocked
system.l2.blocked_cycles::no_targets                0                       # number of cycles access was blocked
system.l2.blocked::no_mshrs                         0                       # number of cycles access was blocked
system.l2.blocked::no_targets                       0                       # number of cycles access was blocked
system.l2.avg_blocked_cycles::no_mshrs            nan                       # average number of cycles each access was blocked
system.l2.avg_blocked_cycles::no_targets          nan                       # average number of cycles each access was blocked
system.l2.writebacks::writebacks                13457                       # number of writebacks
system.l2.writebacks::total                     13457                       # number of writebacks
system.l2.CleanEvict_mshr_misses::writebacks            1                       # number of CleanEvict MSHR misses
system.l2.CleanEvict_mshr_misses::total             1                       # number of CleanEvict MSHR misses
system.l2.ReadSharedReq_mshr_misses::cpu0.data        14272                       # number of ReadSharedReq MSHR misses
system.l2.ReadSharedReq_mshr_misses::total        14272                       # number of ReadSharedReq MSHR misses
system.l2.demand_mshr_misses::cpu0.data         14272                       # number of demand (read+write) MSHR misses
system.l2.demand_mshr_misses::total             14272                       # number of demand (read+write) MSHR misses
system.l2.overall_mshr_misses::cpu0.data        14272                       # number of overall MSHR misses
system.l2.overall_mshr_misses::total            14272                       # number of overall MSHR misses
system.l2.ReadSharedReq_mshr_miss_latency::cpu0.data   1236024000                       # number of ReadSharedReq MSHR miss cycles
system.l2.ReadSharedReq_mshr_miss_latency::total   1236024000                       # number of ReadSharedReq MSHR miss cycles
system.l2.demand_mshr_miss_latency::cpu0.data   1236024000                       # number of demand (read+write) MSHR miss cycles
system.l2.demand_mshr_miss_latency::total   1236024000                       # number of demand (read+write) MSHR miss cycles
system.l2.overall_mshr_miss_latency::cpu0.data   1236024000                       # number of overall MSHR miss cycles
system.l2.overall_mshr_miss_latency::total   1236024000                       # number of overall MSHR miss cycles
system.l2.CleanEvict_mshr_miss_rate::writebacks          inf                       # mshr miss rate for CleanEvict accesses
system.l2.CleanEvict_mshr_miss_rate::total          inf                       # mshr miss rate for CleanEvict accesses
system.l2.ReadSharedReq_mshr_miss_rate::cpu0.data     0.998810                       # mshr miss rate for ReadSharedReq accesses
system.l2.ReadSharedReq_mshr_miss_rate::total     0.998810                       # mshr miss rate for ReadSharedReq accesses
system.l2.demand_mshr_miss_rate::cpu0.data     0.998810                       # mshr miss rate for demand accesses
system.l2.demand_mshr_miss_rate::total       0.998810                       # mshr miss rate for demand accesses
system.l2.overall_mshr_miss_rate::cpu0.data     0.998810                       # mshr miss rate for overall accesses
system.l2.overall_mshr_miss_rate::total      0.998810                       # mshr miss rate for overall accesses
system.l2.ReadSharedReq_avg_mshr_miss_latency::cpu0.data 86604.820628                       # average ReadSharedReq mshr miss latency
system.l2.ReadSharedReq_avg_mshr_miss_latency::total 86604.820628                       # average ReadSharedReq mshr miss latency
system.l2.demand_avg_mshr_miss_latency::cpu0.data 86604.820628                       # average overall mshr miss latency
system.l2.demand_avg_mshr_miss_latency::total 86604.820628                       # average overall mshr miss latency
system.l2.overall_avg_mshr_miss_latency::cpu0.data 86604.820628                       # average overall mshr miss latency
system.l2.overall_avg_mshr_miss_latency::total 86604.820628                       # average overall mshr miss latency
system.membus.snoop_filter.tot_requests         28545                       # Total number of requests made to the snoop filter.
system.membus.snoop_filter.hit_single_requests        14273                       # Number of requests hitting in the snoop filter with a single holder of the requested data.
system.membus.snoop_filter.hit_multi_requests            0                       # Number of requests hitting in the snoop filter with multiple (>1) holders of the requested data.
system.membus.snoop_filter.tot_snoops               0                       # Total number of snoops made to the snoop filter.
system.membus.snoop_filter.hit_single_snoops            0                       # Number of snoops hitting in the snoop filter with a single holder of the requested data.
system.membus.snoop_filter.hit_multi_snoops            0                       # Number of snoops hitting in the snoop filter with multiple (>1) holders of the requested data.
system.membus.pwrStateResidencyTicks::UNDEFINED  15267344125                       # Cumulative time (in ticks) in various power states
system.membus.trans_dist::ReadResp              14272                       # Transaction distribution
system.membus.trans_dist::WritebackDirty        13457                       # Transaction distribution
system.membus.trans_dist::CleanEvict              816                       # Transaction distribution
system.membus.trans_dist::ReadSharedReq         14272                       # Transaction distribution
system.membus.pkt_count_system.l2.mem_side::system.mem_ctrls.port        42817                       # Packet count per connected master and slave (bytes)
system.membus.pkt_count_system.l2.mem_side::total        42817                       # Packet count per connected master and slave (bytes)
system.membus.pkt_count::total                  42817                       # Packet count per connected master and slave (bytes)
system.membus.pkt_size_system.l2.mem_side::system.mem_ctrls.port      1774656                       # Cumulative packet size per connected master and slave (bytes)
system.membus.pkt_size_system.l2.mem_side::total      1774656                       # Cumulative packet size per connected master and slave (bytes)
system.membus.pkt_size::total                 1774656                       # Cumulative packet size per connected master and slave (bytes)
system.membus.snoops                                0                       # Total snoops (count)
system.membus.snoopTraffic                          0                       # Total snoop traffic (bytes)
system.membus.snoop_fanout::samples             14272                       # Request fanout histogram
system.membus.snoop_fanout::mean                    0                       # Request fanout histogram
system.membus.snoop_fanout::stdev                   0                       # Request fanout histogram
system.membus.snoop_fanout::underflows              0      0.00%      0.00% # Request fanout histogram
system.membus.snoop_fanout::0                   14272    100.00%    100.00% # Request fanout histogram
system.membus.snoop_fanout::1                       0      0.00%    100.00% # Request fanout histogram
system.membus.snoop_fanout::overflows               0      0.00%    100.00% # Request fanout histogram
system.membus.snoop_fanout::min_value               0                       # Request fanout histogram
system.membus.snoop_fanout::max_value               0                       # Request fanout histogram
system.membus.snoop_fanout::total               14272                       # Request fanout histogram
system.membus.reqLayer8.occupancy            85933000                       # Layer occupancy (ticks)
system.membus.reqLayer8.utilization               0.6                       # Layer utilization (%)
system.membus.respLayer1.occupancy           76013500                       # Layer occupancy (ticks)
system.membus.respLayer1.utilization              0.5                       # Layer utilization (%)
system.tol2bus.snoop_filter.tot_requests        28578                       # Total number of requests made to the snoop filter.
system.tol2bus.snoop_filter.hit_single_requests        14289                       # Number of requests hitting in the snoop filter with a single holder of the requested data.
system.tol2bus.snoop_filter.hit_multi_requests            0                       # Number of requests hitting in the snoop filter with multiple (>1) holders of the requested data.
system.tol2bus.snoop_filter.tot_snoops              0                       # Total number of snoops made to the snoop filter.
system.tol2bus.snoop_filter.hit_single_snoops            0                       # Number of snoops hitting in the snoop filter with a single holder of the requested data.
system.tol2bus.snoop_filter.hit_multi_snoops            0                       # Number of snoops hitting in the snoop filter with multiple (>1) holders of the requested data.
system.tol2bus.pwrStateResidencyTicks::UNDEFINED  15267344125                       # Cumulative time (in ticks) in various power states
system.tol2bus.trans_dist::ReadResp             14289                       # Transaction distribution
system.tol2bus.trans_dist::WritebackDirty        26905                       # Transaction distribution
system.tol2bus.trans_dist::CleanEvict            1656                       # Transaction distribution
system.tol2bus.trans_dist::ReadSharedReq        14289                       # Transaction distribution
system.tol2bus.pkt_count_system.cpu0.dcache.mem_side::system.l2.cpu_side        42867                       # Packet count per connected master and slave (bytes)
system.tol2bus.pkt_count::total                 42867                       # Packet count per connected master and slave (bytes)
system.tol2bus.pkt_size_system.cpu0.dcache.mem_side::system.l2.cpu_side      1775168                       # Cumulative packet size per connected master and slave (bytes)
system.tol2bus.pkt_size::total                1775168                       # Cumulative packet size per connected master and slave (bytes)
system.tol2bus.snoops                           14272                       # Total snoops (count)
system.tol2bus.snoopTraffic                    861248                       # Total snoop traffic (bytes)
system.tol2bus.snoop_fanout::samples            28561                       # Request fanout histogram
system.tol2bus.snoop_fanout::mean                   0                       # Request fanout histogram
system.tol2bus.snoop_fanout::stdev                  0                       # Request fanout histogram
system.tol2bus.snoop_fanout::underflows             0      0.00%      0.00% # Request fanout histogram
system.tol2bus.snoop_fanout::0                  28561    100.00%    100.00% # Request fanout histogram
system.tol2bus.snoop_fanout::1                      0      0.00%    100.00% # Request fanout histogram
system.tol2bus.snoop_fanout::2                      0      0.00%    100.00% # Request fanout histogram
system.tol2bus.snoop_fanout::3                      0      0.00%    100.00% # Request fanout histogram
system.tol2bus.snoop_fanout::4                      0      0.00%    100.00% # Request fanout histogram
system.tol2bus.snoop_fanout::5                      0      0.00%    100.00% # Request fanout histogram
system.tol2bus.snoop_fanout::6                      0      0.00%    100.00% # Request fanout histogram
system.tol2bus.snoop_fanout::7                      0      0.00%    100.00% # Request fanout histogram
system.tol2bus.snoop_fanout::8                      0      0.00%    100.00% # Request fanout histogram
system.tol2bus.snoop_fanout::9                      0      0.00%    100.00% # Request fanout histogram
system.tol2bus.snoop_fanout::10                     0      0.00%    100.00% # Request fanout histogram
system.tol2bus.snoop_fanout::11                     0      0.00%    100.00% # Request fanout histogram
system.tol2bus.snoop_fanout::12                     0      0.00%    100.00% # Request fanout histogram
system.tol2bus.snoop_fanout::13                     0      0.00%    100.00% # Request fanout histogram
system.tol2bus.snoop_fanout::14                     0      0.00%    100.00% # Request fanout histogram
system.tol2bus.snoop_fanout::15                     0      0.00%    100.00% # Request fanout histogram
system.tol2bus.snoop_fanout::16                     0      0.00%    100.00% # Request fanout histogram
system.tol2bus.snoop_fanout::overflows              0      0.00%    100.00% # Request fanout histogram
system.tol2bus.snoop_fanout::min_value              0                       # Request fanout histogram
system.tol2bus.snoop_fanout::max_value              0                       # Request fanout histogram
system.tol2bus.snoop_fanout::total              28561                       # Request fanout histogram
system.tol2bus.reqLayer0.occupancy           27737000                       # Layer occupancy (ticks)
system.tol2bus.reqLayer0.utilization              0.2                       # Layer utilization (%)
system.tol2bus.respLayer1.occupancy          21433500                       # Layer occupancy (ticks)
system.tol2bus.respLayer1.utilization             0.1                       # Layer utilization (%)

---------- End Simulation Statistics   ----------
