
---------- Begin Simulation Statistics ----------
sim_seconds                                  0.015267                       # Number of seconds simulated
sim_ticks                                 15267344125                       # Number of ticks simulated
final_tick                               137406097125                       # Number of ticks from beginning of simulation (restored from checkpoints and never reset)
sim_freq                                 1000000000000                       # Frequency of simulated ticks
host_inst_rate                                 740815                       # Simulator instruction rate (inst/s)
host_op_rate                                  1391239                       # Simulator op (including micro ops) rate (op/s)
host_tick_rate                               35903160                       # Simulator tick rate (ticks/s)
host_mem_usage                                2302816                       # Number of bytes of host memory used
host_seconds                                   425.24                       # Real time elapsed on the host
sim_insts                                   315021736                       # Number of instructions simulated
sim_ops                                     591605800                       # Number of ops (including micro ops) simulated
system.voltage_domain.voltage                       1                       # Voltage in Volts
system.clk_domain.clock                          1000                       # Clock period in ticks
system.mem_ctrls.pwrStateResidencyTicks::UNDEFINED  15267344125                       # Cumulative time (in ticks) in various power states
system.mem_ctrls.bytes_read::cpu0.inst             64                       # Number of bytes read from this memory
system.mem_ctrls.bytes_read::cpu0.data         219456                       # Number of bytes read from this memory
system.mem_ctrls.bytes_read::total             219520                       # Number of bytes read from this memory
system.mem_ctrls.bytes_inst_read::cpu0.inst           64                       # Number of instructions bytes read from this memory
system.mem_ctrls.bytes_inst_read::total            64                       # Number of instructions bytes read from this memory
system.mem_ctrls.bytes_written::writebacks        64064                       # Number of bytes written to this memory
system.mem_ctrls.bytes_written::total           64064                       # Number of bytes written to this memory
system.mem_ctrls.num_reads::cpu0.inst               1                       # Number of read requests responded to by this memory
system.mem_ctrls.num_reads::cpu0.data            3429                       # Number of read requests responded to by this memory
system.mem_ctrls.num_reads::total                3430                       # Number of read requests responded to by this memory
system.mem_ctrls.num_writes::writebacks          1001                       # Number of write requests responded to by this memory
system.mem_ctrls.num_writes::total               1001                       # Number of write requests responded to by this memory
system.mem_ctrls.bw_read::cpu0.inst              4192                       # Total read bandwidth from this memory (bytes/s)
system.mem_ctrls.bw_read::cpu0.data          14374209                       # Total read bandwidth from this memory (bytes/s)
system.mem_ctrls.bw_read::total              14378401                       # Total read bandwidth from this memory (bytes/s)
system.mem_ctrls.bw_inst_read::cpu0.inst         4192                       # Instruction read bandwidth from this memory (bytes/s)
system.mem_ctrls.bw_inst_read::total             4192                       # Instruction read bandwidth from this memory (bytes/s)
system.mem_ctrls.bw_write::writebacks         4196146                       # Write bandwidth from this memory (bytes/s)
system.mem_ctrls.bw_write::total              4196146                       # Write bandwidth from this memory (bytes/s)
system.mem_ctrls.bw_total::writebacks         4196146                       # Total bandwidth to/from this memory (bytes/s)
system.mem_ctrls.bw_total::cpu0.inst             4192                       # Total bandwidth to/from this memory (bytes/s)
system.mem_ctrls.bw_total::cpu0.data         14374209                       # Total bandwidth to/from this memory (bytes/s)
system.mem_ctrls.bw_total::total             18574547                       # Total bandwidth to/from this memory (bytes/s)
system.mem_ctrls.readReqs                        3430                       # Number of read requests accepted
system.mem_ctrls.writeReqs                       1001                       # Number of write requests accepted
system.mem_ctrls.readBursts                      3430                       # Number of DRAM read bursts, including those serviced by the write queue
system.mem_ctrls.writeBursts                     1001                       # Number of DRAM write bursts, including those merged in the write queue
system.mem_ctrls.bytesReadDRAM                 219456                       # Total number of bytes read from DRAM
system.mem_ctrls.bytesReadWrQ                      64                       # Total number of bytes read from write queue
system.mem_ctrls.bytesWritten                   63616                       # Total number of bytes written to DRAM
system.mem_ctrls.bytesReadSys                  219520                       # Total read bytes from the system interface side
system.mem_ctrls.bytesWrittenSys                64064                       # Total written bytes from the system interface side
system.mem_ctrls.servicedByWrQ                      1                       # Number of DRAM read bursts serviced by the write queue
system.mem_ctrls.mergedWrBursts                     0                       # Number of DRAM write bursts merged with an existing one
system.mem_ctrls.neitherReadNorWriteReqs            0                       # Number of requests that are neither read nor write
system.mem_ctrls.perBankRdBursts::0               190                       # Per bank write bursts
system.mem_ctrls.perBankRdBursts::1               131                       # Per bank write bursts
system.mem_ctrls.perBankRdBursts::2               129                       # Per bank write bursts
system.mem_ctrls.perBankRdBursts::3               128                       # Per bank write bursts
system.mem_ctrls.perBankRdBursts::4                55                       # Per bank write bursts
system.mem_ctrls.perBankRdBursts::5                70                       # Per bank write bursts
system.mem_ctrls.perBankRdBursts::6               128                       # Per bank write bursts
system.mem_ctrls.perBankRdBursts::7               208                       # Per bank write bursts
system.mem_ctrls.perBankRdBursts::8               384                       # Per bank write bursts
system.mem_ctrls.perBankRdBursts::9               384                       # Per bank write bursts
system.mem_ctrls.perBankRdBursts::10              339                       # Per bank write bursts
system.mem_ctrls.perBankRdBursts::11              256                       # Per bank write bursts
system.mem_ctrls.perBankRdBursts::12              256                       # Per bank write bursts
system.mem_ctrls.perBankRdBursts::13              256                       # Per bank write bursts
system.mem_ctrls.perBankRdBursts::14              259                       # Per bank write bursts
system.mem_ctrls.perBankRdBursts::15              256                       # Per bank write bursts
system.mem_ctrls.perBankWrBursts::0               121                       # Per bank write bursts
system.mem_ctrls.perBankWrBursts::1                36                       # Per bank write bursts
system.mem_ctrls.perBankWrBursts::2                66                       # Per bank write bursts
system.mem_ctrls.perBankWrBursts::3                63                       # Per bank write bursts
system.mem_ctrls.perBankWrBursts::4                28                       # Per bank write bursts
system.mem_ctrls.perBankWrBursts::5                 9                       # Per bank write bursts
system.mem_ctrls.perBankWrBursts::6                19                       # Per bank write bursts
system.mem_ctrls.perBankWrBursts::7                56                       # Per bank write bursts
system.mem_ctrls.perBankWrBursts::8               114                       # Per bank write bursts
system.mem_ctrls.perBankWrBursts::9                36                       # Per bank write bursts
system.mem_ctrls.perBankWrBursts::10                2                       # Per bank write bursts
system.mem_ctrls.perBankWrBursts::11                2                       # Per bank write bursts
system.mem_ctrls.perBankWrBursts::12               71                       # Per bank write bursts
system.mem_ctrls.perBankWrBursts::13               80                       # Per bank write bursts
system.mem_ctrls.perBankWrBursts::14              134                       # Per bank write bursts
system.mem_ctrls.perBankWrBursts::15              157                       # Per bank write bursts
system.mem_ctrls.numRdRetry                         0                       # Number of times read queue was full causing retry
system.mem_ctrls.numWrRetry                         0                       # Number of times write queue was full causing retry
system.mem_ctrls.totGap                   15272952000                       # Total gap between requests
system.mem_ctrls.readPktSize::0                     0                       # Read request sizes (log2)
system.mem_ctrls.readPktSize::1                     0                       # Read request sizes (log2)
system.mem_ctrls.readPktSize::2                     0                       # Read request sizes (log2)
system.mem_ctrls.readPktSize::3                     0                       # Read request sizes (log2)
system.mem_ctrls.readPktSize::4                     0                       # Read request sizes (log2)
system.mem_ctrls.readPktSize::5                     0                       # Read request sizes (log2)
system.mem_ctrls.readPktSize::6                  3430                       # Read request sizes (log2)
system.mem_ctrls.writePktSize::0                    0                       # Write request sizes (log2)
system.mem_ctrls.writePktSize::1                    0                       # Write request sizes (log2)
system.mem_ctrls.writePktSize::2                    0                       # Write request sizes (log2)
system.mem_ctrls.writePktSize::3                    0                       # Write request sizes (log2)
system.mem_ctrls.writePktSize::4                    0                       # Write request sizes (log2)
system.mem_ctrls.writePktSize::5                    0                       # Write request sizes (log2)
system.mem_ctrls.writePktSize::6                 1001                       # Write request sizes (log2)
system.mem_ctrls.rdQLenPdf::0                    3426                       # What read queue length does an incoming req see
system.mem_ctrls.rdQLenPdf::1                       2                       # What read queue length does an incoming req see
system.mem_ctrls.rdQLenPdf::2                       1                       # What read queue length does an incoming req see
system.mem_ctrls.rdQLenPdf::3                       0                       # What read queue length does an incoming req see
system.mem_ctrls.rdQLenPdf::4                       0                       # What read queue length does an incoming req see
system.mem_ctrls.rdQLenPdf::5                       0                       # What read queue length does an incoming req see
system.mem_ctrls.rdQLenPdf::6                       0                       # What read queue length does an incoming req see
system.mem_ctrls.rdQLenPdf::7                       0                       # What read queue length does an incoming req see
system.mem_ctrls.rdQLenPdf::8                       0                       # What read queue length does an incoming req see
system.mem_ctrls.rdQLenPdf::9                       0                       # What read queue length does an incoming req see
system.mem_ctrls.rdQLenPdf::10                      0                       # What read queue length does an incoming req see
system.mem_ctrls.rdQLenPdf::11                      0                       # What read queue length does an incoming req see
system.mem_ctrls.rdQLenPdf::12                      0                       # What read queue length does an incoming req see
system.mem_ctrls.rdQLenPdf::13                      0                       # What read queue length does an incoming req see
system.mem_ctrls.rdQLenPdf::14                      0                       # What read queue length does an incoming req see
system.mem_ctrls.rdQLenPdf::15                      0                       # What read queue length does an incoming req see
system.mem_ctrls.rdQLenPdf::16                      0                       # What read queue length does an incoming req see
system.mem_ctrls.rdQLenPdf::17                      0                       # What read queue length does an incoming req see
system.mem_ctrls.rdQLenPdf::18                      0                       # What read queue length does an incoming req see
system.mem_ctrls.rdQLenPdf::19                      0                       # What read queue length does an incoming req see
system.mem_ctrls.rdQLenPdf::20                      0                       # What read queue length does an incoming req see
system.mem_ctrls.rdQLenPdf::21                      0                       # What read queue length does an incoming req see
system.mem_ctrls.rdQLenPdf::22                      0                       # What read queue length does an incoming req see
system.mem_ctrls.rdQLenPdf::23                      0                       # What read queue length does an incoming req see
system.mem_ctrls.rdQLenPdf::24                      0                       # What read queue length does an incoming req see
system.mem_ctrls.rdQLenPdf::25                      0                       # What read queue length does an incoming req see
system.mem_ctrls.rdQLenPdf::26                      0                       # What read queue length does an incoming req see
system.mem_ctrls.rdQLenPdf::27                      0                       # What read queue length does an incoming req see
system.mem_ctrls.rdQLenPdf::28                      0                       # What read queue length does an incoming req see
system.mem_ctrls.rdQLenPdf::29                      0                       # What read queue length does an incoming req see
system.mem_ctrls.rdQLenPdf::30                      0                       # What read queue length does an incoming req see
system.mem_ctrls.rdQLenPdf::31                      0                       # What read queue length does an incoming req see
system.mem_ctrls.wrQLenPdf::0                       0                       # What write queue length does an incoming req see
system.mem_ctrls.wrQLenPdf::1                       0                       # What write queue length does an incoming req see
system.mem_ctrls.wrQLenPdf::2                       0                       # What write queue length does an incoming req see
system.mem_ctrls.wrQLenPdf::3                       0                       # What write queue length does an incoming req see
system.mem_ctrls.wrQLenPdf::4                       0                       # What write queue length does an incoming req see
system.mem_ctrls.wrQLenPdf::5                       0                       # What write queue length does an incoming req see
system.mem_ctrls.wrQLenPdf::6                       0                       # What write queue length does an incoming req see
system.mem_ctrls.wrQLenPdf::7                       0                       # What write queue length does an incoming req see
system.mem_ctrls.wrQLenPdf::8                       0                       # What write queue length does an incoming req see
system.mem_ctrls.wrQLenPdf::9                       0                       # What write queue length does an incoming req see
system.mem_ctrls.wrQLenPdf::10                      0                       # What write queue length does an incoming req see
system.mem_ctrls.wrQLenPdf::11                      0                       # What write queue length does an incoming req see
system.mem_ctrls.wrQLenPdf::12                      0                       # What write queue length does an incoming req see
system.mem_ctrls.wrQLenPdf::13                      0                       # What write queue length does an incoming req see
system.mem_ctrls.wrQLenPdf::14                      0                       # What write queue length does an incoming req see
system.mem_ctrls.wrQLenPdf::15                     49                       # What write queue length does an incoming req see
system.mem_ctrls.wrQLenPdf::16                     49                       # What write queue length does an incoming req see
system.mem_ctrls.wrQLenPdf::17                     57                       # What write queue length does an incoming req see
system.mem_ctrls.wrQLenPdf::18                     57                       # What write queue length does an incoming req see
system.mem_ctrls.wrQLenPdf::19                     57                       # What write queue length does an incoming req see
system.mem_ctrls.wrQLenPdf::20                     57                       # What write queue length does an incoming req see
system.mem_ctrls.wrQLenPdf::21                     57                       # What write queue length does an incoming req see
system.mem_ctrls.wrQLenPdf::22                     57                       # What write queue length does an incoming req see
system.mem_ctrls.wrQLenPdf::23                     57                       # What write queue length does an incoming req see
system.mem_ctrls.wrQLenPdf::24                     56                       # What write queue length does an incoming req see
system.mem_ctrls.wrQLenPdf::25                     56                       # What write queue length does an incoming req see
system.mem_ctrls.wrQLenPdf::26                     56                       # What write queue length does an incoming req see
system.mem_ctrls.wrQLenPdf::27                     56                       # What write queue length does an incoming req see
system.mem_ctrls.wrQLenPdf::28                     56                       # What write queue length does an incoming req see
system.mem_ctrls.wrQLenPdf::29                     56                       # What write queue length does an incoming req see
system.mem_ctrls.wrQLenPdf::30                     56                       # What write queue length does an incoming req see
system.mem_ctrls.wrQLenPdf::31                     56                       # What write queue length does an incoming req see
system.mem_ctrls.wrQLenPdf::32                     56                       # What write queue length does an incoming req see
system.mem_ctrls.wrQLenPdf::33                      0                       # What write queue length does an incoming req see
system.mem_ctrls.wrQLenPdf::34                      0                       # What write queue length does an incoming req see
system.mem_ctrls.wrQLenPdf::35                      0                       # What write queue length does an incoming req see
system.mem_ctrls.wrQLenPdf::36                      0                       # What write queue length does an incoming req see
system.mem_ctrls.wrQLenPdf::37                      0                       # What write queue length does an incoming req see
system.mem_ctrls.wrQLenPdf::38                      0                       # What write queue length does an incoming req see
system.mem_ctrls.wrQLenPdf::39                      0                       # What write queue length does an incoming req see
system.mem_ctrls.wrQLenPdf::40                      0                       # What write queue length does an incoming req see
system.mem_ctrls.wrQLenPdf::41                      0                       # What write queue length does an incoming req see
system.mem_ctrls.wrQLenPdf::42                      0                       # What write queue length does an incoming req see
system.mem_ctrls.wrQLenPdf::43                      0                       # What write queue length does an incoming req see
system.mem_ctrls.wrQLenPdf::44                      0                       # What write queue length does an incoming req see
system.mem_ctrls.wrQLenPdf::45                      0                       # What write queue length does an incoming req see
system.mem_ctrls.wrQLenPdf::46                      0                       # What write queue length does an incoming req see
system.mem_ctrls.wrQLenPdf::47                      0                       # What write queue length does an incoming req see
system.mem_ctrls.wrQLenPdf::48                      0                       # What write queue length does an incoming req see
system.mem_ctrls.wrQLenPdf::49                      0                       # What write queue length does an incoming req see
system.mem_ctrls.wrQLenPdf::50                      0                       # What write queue length does an incoming req see
system.mem_ctrls.wrQLenPdf::51                      0                       # What write queue length does an incoming req see
system.mem_ctrls.wrQLenPdf::52                      0                       # What write queue length does an incoming req see
system.mem_ctrls.wrQLenPdf::53                      0                       # What write queue length does an incoming req see
system.mem_ctrls.wrQLenPdf::54                      0                       # What write queue length does an incoming req see
system.mem_ctrls.wrQLenPdf::55                      0                       # What write queue length does an incoming req see
system.mem_ctrls.wrQLenPdf::56                      0                       # What write queue length does an incoming req see
system.mem_ctrls.wrQLenPdf::57                      0                       # What write queue length does an incoming req see
system.mem_ctrls.wrQLenPdf::58                      0                       # What write queue length does an incoming req see
system.mem_ctrls.wrQLenPdf::59                      0                       # What write queue length does an incoming req see
system.mem_ctrls.wrQLenPdf::60                      0                       # What write queue length does an incoming req see
system.mem_ctrls.wrQLenPdf::61                      0                       # What write queue length does an incoming req see
system.mem_ctrls.wrQLenPdf::62                      0                       # What write queue length does an incoming req see
system.mem_ctrls.wrQLenPdf::63                      0                       # What write queue length does an incoming req see
system.mem_ctrls.bytesPerActivate::samples         3525                       # Bytes accessed per row activation
system.mem_ctrls.bytesPerActivate::mean     80.285957                       # Bytes accessed per row activation
system.mem_ctrls.bytesPerActivate::gmean    69.115261                       # Bytes accessed per row activation
system.mem_ctrls.bytesPerActivate::stdev    97.797725                       # Bytes accessed per row activation
system.mem_ctrls.bytesPerActivate::0-127         3337     94.67%     94.67% # Bytes accessed per row activation
system.mem_ctrls.bytesPerActivate::128-255           92      2.61%     97.28% # Bytes accessed per row activation
system.mem_ctrls.bytesPerActivate::256-383           25      0.71%     97.99% # Bytes accessed per row activation
system.mem_ctrls.bytesPerActivate::384-511           22      0.62%     98.61% # Bytes accessed per row activation
system.mem_ctrls.bytesPerActivate::512-639            7      0.20%     98.81% # Bytes accessed per row activation
system.mem_ctrls.bytesPerActivate::640-767           13      0.37%     99.18% # Bytes accessed per row activation
system.mem_ctrls.bytesPerActivate::768-895            6      0.17%     99.35% # Bytes accessed per row activation
system.mem_ctrls.bytesPerActivate::896-1023            6      0.17%     99.52% # Bytes accessed per row activation
system.mem_ctrls.bytesPerActivate::1024-1151           17      0.48%    100.00% # Bytes accessed per row activation
system.mem_ctrls.bytesPerActivate::total         3525                       # Bytes accessed per row activation
system.mem_ctrls.rdPerTurnAround::samples           56                       # Reads before turning the bus around for writes
system.mem_ctrls.rdPerTurnAround::mean      61.946429                       # Reads before turning the bus around for writes
system.mem_ctrls.rdPerTurnAround::gmean     44.994563                       # Reads before turning the bus around for writes
system.mem_ctrls.rdPerTurnAround::stdev     65.501817                       # Reads before turning the bus around for writes
system.mem_ctrls.rdPerTurnAround::16-31            21     37.50%     37.50% # Reads before turning the bus around for writes
system.mem_ctrls.rdPerTurnAround::32-47            17     30.36%     67.86% # Reads before turning the bus around for writes
system.mem_ctrls.rdPerTurnAround::48-63             3      5.36%     73.21% # Reads before turning the bus around for writes
system.mem_ctrls.rdPerTurnAround::64-79             4      7.14%     80.36% # Reads before turning the bus around for writes
system.mem_ctrls.rdPerTurnAround::80-95             3      5.36%     85.71% # Reads before turning the bus around for writes
system.mem_ctrls.rdPerTurnAround::96-111            1      1.79%     87.50% # Reads before turning the bus around for writes
system.mem_ctrls.rdPerTurnAround::128-143            1      1.79%     89.29% # Reads before turning the bus around for writes
system.mem_ctrls.rdPerTurnAround::144-159            2      3.57%     92.86% # Reads before turning the bus around for writes
system.mem_ctrls.rdPerTurnAround::208-223            2      3.57%     96.43% # Reads before turning the bus around for writes
system.mem_ctrls.rdPerTurnAround::288-303            1      1.79%     98.21% # Reads before turning the bus around for writes
system.mem_ctrls.rdPerTurnAround::320-335            1      1.79%    100.00% # Reads before turning the bus around for writes
system.mem_ctrls.rdPerTurnAround::total            56                       # Reads before turning the bus around for writes
system.mem_ctrls.wrPerTurnAround::samples           56                       # Writes before turning the bus around for reads
system.mem_ctrls.wrPerTurnAround::mean      17.750000                       # Writes before turning the bus around for reads
system.mem_ctrls.wrPerTurnAround::gmean     17.736929                       # Writes before turning the bus around for reads
system.mem_ctrls.wrPerTurnAround::stdev      0.667424                       # Writes before turning the bus around for reads
system.mem_ctrls.wrPerTurnAround::16                7     12.50%     12.50% # Writes before turning the bus around for reads
system.mem_ctrls.wrPerTurnAround::18               49     87.50%    100.00% # Writes before turning the bus around for reads
system.mem_ctrls.wrPerTurnAround::total            56                       # Writes before turning the bus around for reads
system.mem_ctrls.totQLat                    239534500                       # Total ticks spent queuing
system.mem_ctrls.totMemAccLat               303828250                       # Total ticks spent from burst creation until serviced by the DRAM
system.mem_ctrls.totBusLat                   17145000                       # Total ticks spent in databus transfers
system.mem_ctrls.avgQLat                     69855.50                       # Average queueing delay per DRAM burst
system.mem_ctrls.avgBusLat                    5000.00                       # Average bus latency per DRAM burst
system.mem_ctrls.avgMemAccLat                88605.50                       # Average memory access latency per DRAM burst
system.mem_ctrls.avgRdBW                        14.37                       # Average DRAM read bandwidth in MiByte/s
system.mem_ctrls.avgWrBW                         4.17                       # Average achieved write bandwidth in MiByte/s
system.mem_ctrls.avgRdBWSys                     14.38                       # Average system read bandwidth in MiByte/s
system.mem_ctrls.avgWrBWSys                      4.20                       # Average system write bandwidth in MiByte/s
system.mem_ctrls.peakBW                      12800.00                       # Theoretical peak bandwidth in MiByte/s
system.mem_ctrls.busUtil                         0.14                       # Data bus utilization in percentage
system.mem_ctrls.busUtilRead                     0.11                       # Data bus utilization in percentage for reads
system.mem_ctrls.busUtilWrite                    0.03                       # Data bus utilization in percentage for writes
system.mem_ctrls.avgRdQLen                       1.00                       # Average read queue length when enqueuing
system.mem_ctrls.avgWrQLen                      24.68                       # Average write queue length when enqueuing
system.mem_ctrls.readRowHits                       60                       # Number of row buffer hits during reads
system.mem_ctrls.writeRowHits                     837                       # Number of row buffer hits during writes
system.mem_ctrls.readRowHitRate                  1.75                       # Row buffer hit rate for reads
system.mem_ctrls.writeRowHitRate                83.62                       # Row buffer hit rate for writes
system.mem_ctrls.avgGap                    3446840.89                       # Average gap between requests
system.mem_ctrls.pageHitRate                    20.25                       # Row buffer hit rate, read and write combined
system.mem_ctrls_0.actEnergy                  7632660                       # Energy for activate commands per rank (pJ)
system.mem_ctrls_0.preEnergy                  4053060                       # Energy for precharge commands per rank (pJ)
system.mem_ctrls_0.readEnergy                 7418460                       # Energy for read commands per rank (pJ)
system.mem_ctrls_0.writeEnergy                2077560                       # Energy for write commands per rank (pJ)
system.mem_ctrls_0.refreshEnergy         614025360.000000                       # Energy for refresh commands per rank (pJ)
system.mem_ctrls_0.actBackEnergy            163869870                       # Energy for active background per rank (pJ)
system.mem_ctrls_0.preBackEnergy             17445120                       # Energy for precharge background per rank (pJ)
system.mem_ctrls_0.actPowerDownEnergy      1614986700                       # Energy for active power-down per rank (pJ)
system.mem_ctrls_0.prePowerDownEnergy      1304936160                       # Energy for precharge power-down per rank (pJ)
system.mem_ctrls_0.selfRefreshEnergy       1934016060                       # Energy for self refresh per rank (pJ)
system.mem_ctrls_0.totalEnergy             5671321620                       # Total energy per rank (pJ)
system.mem_ctrls_0.averagePower            371.467465                       # Core power per rank (mW)
system.mem_ctrls_0.totalIdleTime          14859097250                       # Total Idle time Per DRAM Rank
system.mem_ctrls_0.memoryStateTime::IDLE     20922000                       # Time in different power states
system.mem_ctrls_0.memoryStateTime::REF     260196000                       # Time in different power states
system.mem_ctrls_0.memoryStateTime::SREF   7920718500                       # Time in different power states
system.mem_ctrls_0.memoryStateTime::PRE_PDN   3398288500                       # Time in different power states
system.mem_ctrls_0.memoryStateTime::ACT     125743750                       # Time in different power states
system.mem_ctrls_0.memoryStateTime::ACT_PDN   3541475375                       # Time in different power states
system.mem_ctrls_1.actEnergy                 17542980                       # Energy for activate commands per rank (pJ)
system.mem_ctrls_1.preEnergy                  9324315                       # Energy for precharge commands per rank (pJ)
system.mem_ctrls_1.readEnergy                17064600                       # Energy for read commands per rank (pJ)
system.mem_ctrls_1.writeEnergy                3111120                       # Energy for write commands per rank (pJ)
system.mem_ctrls_1.refreshEnergy         1220060400.000000                       # Energy for refresh commands per rank (pJ)
system.mem_ctrls_1.actBackEnergy            324540330                       # Energy for active background per rank (pJ)
system.mem_ctrls_1.preBackEnergy             47822400                       # Energy for precharge background per rank (pJ)
system.mem_ctrls_1.actPowerDownEnergy      3294631920                       # Energy for active power-down per rank (pJ)
system.mem_ctrls_1.prePowerDownEnergy      2141526240                       # Energy for precharge power-down per rank (pJ)
system.mem_ctrls_1.selfRefreshEnergy        529052100                       # Energy for self refresh per rank (pJ)
system.mem_ctrls_1.totalEnergy             7605976005                       # Total energy per rank (pJ)
system.mem_ctrls_1.averagePower            498.185928                       # Core power per rank (mW)
system.mem_ctrls_1.totalIdleTime          14423127500                       # Total Idle time Per DRAM Rank
system.mem_ctrls_1.memoryStateTime::IDLE     75066750                       # Time in different power states
system.mem_ctrls_1.memoryStateTime::REF     517732000                       # Time in different power states
system.mem_ctrls_1.memoryStateTime::SREF   1626240250                       # Time in different power states
system.mem_ctrls_1.memoryStateTime::PRE_PDN   5576856375                       # Time in different power states
system.mem_ctrls_1.memoryStateTime::ACT     246221250                       # Time in different power states
system.mem_ctrls_1.memoryStateTime::ACT_PDN   7225227500                       # Time in different power states
system.pwrStateResidencyTicks::UNDEFINED  15267344125                       # Cumulative time (in ticks) in various power states
system.cpu0.branchPred.lookups               13307245                       # Number of BP lookups
system.cpu0.branchPred.condPredicted         13307245                       # Number of conditional branches predicted
system.cpu0.branchPred.condIncorrect          1063800                       # Number of conditional branches incorrect
system.cpu0.branchPred.BTBLookups            11204424                       # Number of BTB lookups
system.cpu0.branchPred.BTBHits                      0                       # Number of BTB hits
system.cpu0.branchPred.BTBCorrect                   0                       # Number of correct BTB predictions (this stat may not work properly.
system.cpu0.branchPred.BTBHitPct             0.000000                       # BTB Hit Percentage
system.cpu0.branchPred.usedRAS                1003417                       # Number of times the RAS was used to get a target.
system.cpu0.branchPred.RASInCorrect            208360                       # Number of incorrect RAS predictions.
system.cpu0.branchPred.indirectLookups       11204424                       # Number of indirect predictor lookups.
system.cpu0.branchPred.indirectHits           3733089                       # Number of indirect target hits.
system.cpu0.branchPred.indirectMisses         7471335                       # Number of indirect misses.
system.cpu0.branchPredindirectMispredicted       762295                       # Number of mispredicted indirect branches.
system.cpu_voltage_domain.voltage                   1                       # Voltage in Volts
system.cpu_clk_domain.clock                       500                       # Clock period in ticks
system.cpu0.dtb.walker.pwrStateResidencyTicks::UNDEFINED  15267344125                       # Cumulative time (in ticks) in various power states
system.cpu0.dtb.rdAccesses                   10135268                       # TLB accesses on read requests
system.cpu0.dtb.wrAccesses                    7582524                       # TLB accesses on write requests
system.cpu0.dtb.rdMisses                       125732                       # TLB misses on read requests
system.cpu0.dtb.wrMisses                        40602                       # TLB misses on write requests
system.cpu0.apic_clk_domain.clock                8000                       # Clock period in ticks
system.cpu0.interrupts.pwrStateResidencyTicks::UNDEFINED  15267344125                       # Cumulative time (in ticks) in various power states
system.cpu0.itb.walker.pwrStateResidencyTicks::UNDEFINED  15267344125                       # Cumulative time (in ticks) in various power states
system.cpu0.itb.rdAccesses                          0                       # TLB accesses on read requests
system.cpu0.itb.wrAccesses                    9073945                       # TLB accesses on write requests
system.cpu0.itb.rdMisses                            0                       # TLB misses on read requests
system.cpu0.itb.wrMisses                        12363                       # TLB misses on write requests
system.cpu0.workload.numSyscalls                   24                       # Number of system calls
system.cpu0.pwrStateResidencyTicks::ON    15267344125                       # Cumulative time (in ticks) in various power states
system.cpu0.numCycles                        30534688                       # number of cpu cycles simulated
system.cpu0.numWorkItemsStarted                     0                       # number of work items this cpu started
system.cpu0.numWorkItemsCompleted                   0                       # number of work items this cpu completed
system.cpu0.fetch.icacheStallCycles           9789717                       # Number of cycles fetch is stalled on an Icache miss
system.cpu0.fetch.Insts                      59974850                       # Number of instructions fetch has processed
system.cpu0.fetch.Branches                   13307245                       # Number of branches that fetch encountered
system.cpu0.fetch.predictedBranches           4736506                       # Number of branches that fetch has predicted taken
system.cpu0.fetch.Cycles                     19609698                       # Number of cycles fetch has run and was not squashing or blocked
system.cpu0.fetch.SquashCycles                2142540                       # Number of cycles fetch has spent squashing
system.cpu0.fetch.MiscStallCycles                6914                       # Number of cycles fetch has spent waiting on interrupts, or bad addresses, or out of MSHRs
system.cpu0.fetch.PendingTrapStallCycles        56812                       # Number of stall cycles due to pending traps
system.cpu0.fetch.CacheLines                  9061582                       # Number of cache lines fetched
system.cpu0.fetch.IcacheSquashes               264907                       # Number of outstanding Icache misses that were squashed
system.cpu0.fetch.rateDist::samples          30534411                       # Number of instructions fetched each cycle (Total)
system.cpu0.fetch.rateDist::mean             3.757528                       # Number of instructions fetched each cycle (Total)
system.cpu0.fetch.rateDist::stdev            3.572674                       # Number of instructions fetched each cycle (Total)
system.cpu0.fetch.rateDist::underflows              0      0.00%      0.00% # Number of instructions fetched each cycle (Total)
system.cpu0.fetch.rateDist::0                12215485     40.01%     40.01% # Number of instructions fetched each cycle (Total)
system.cpu0.fetch.rateDist::1                  868368      2.84%     42.85% # Number of instructions fetched each cycle (Total)
system.cpu0.fetch.rateDist::2                 1271403      4.16%     47.01% # Number of instructions fetched each cycle (Total)
system.cpu0.fetch.rateDist::3                 1435467      4.70%     51.71% # Number of instructions fetched each cycle (Total)
system.cpu0.fetch.rateDist::4                 1121663      3.67%     55.39% # Number of instructions fetched each cycle (Total)
system.cpu0.fetch.rateDist::5                 1134018      3.71%     59.10% # Number of instructions fetched each cycle (Total)
system.cpu0.fetch.rateDist::6                 1060696      3.47%     62.58% # Number of instructions fetched each cycle (Total)
system.cpu0.fetch.rateDist::7                  923072      3.02%     65.60% # Number of instructions fetched each cycle (Total)
system.cpu0.fetch.rateDist::8                10504239     34.40%    100.00% # Number of instructions fetched each cycle (Total)
system.cpu0.fetch.rateDist::overflows               0      0.00%    100.00% # Number of instructions fetched each cycle (Total)
system.cpu0.fetch.rateDist::min_value               0                       # Number of instructions fetched each cycle (Total)
system.cpu0.fetch.rateDist::max_value               8                       # Number of instructions fetched each cycle (Total)
system.cpu0.fetch.rateDist::total            30534411                       # Number of instructions fetched each cycle (Total)
system.cpu0.fetch.branchRate                 0.435807                       # Number of branch fetches per cycle
system.cpu0.fetch.rate                       1.964155                       # Number of inst fetches per cycle
system.cpu0.decode.IdleCycles                 8700078                       # Number of cycles decode is idle
system.cpu0.decode.BlockedCycles              4042154                       # Number of cycles decode is blocked
system.cpu0.decode.RunCycles                 15767652                       # Number of cycles decode is running
system.cpu0.decode.UnblockCycles               953257                       # Number of cycles decode is unblocking
system.cpu0.decode.SquashCycles               1071270                       # Number of cycles decode is squashing
system.cpu0.decode.DecodedInsts             109288126                       # Number of instructions handled by decode
system.cpu0.rename.SquashCycles               1071270                       # Number of cycles rename is squashing
system.cpu0.rename.IdleCycles                 9456917                       # Number of cycles rename is idle
system.cpu0.rename.BlockCycles                3209797                       # Number of cycles rename is blocking
system.cpu0.rename.serializeStallCycles         12922                       # count of cycles rename stalled for serializing inst
system.cpu0.rename.RunCycles                 15899885                       # Number of cycles rename is running
system.cpu0.rename.UnblockCycles               883620                       # Number of cycles rename is unblocking
system.cpu0.rename.RenamedInsts             104295700                       # Number of instructions processed by rename
system.cpu0.rename.ROBFullEvents                  151                       # Number of times rename has blocked due to ROB full
system.cpu0.rename.IQFullEvents                 70836                       # Number of times rename has blocked due to IQ full
system.cpu0.rename.LQFullEvents                    73                       # Number of times rename has blocked due to LQ full
system.cpu0.rename.SQFullEvents                756547                       # Number of times rename has blocked due to SQ full
system.cpu0.rename.RenamedOperands          110963970                       # Number of destination operands rename has renamed
system.cpu0.rename.RenameLookups            262581676                       # Number of register rename lookups that rename has made
system.cpu0.rename.int_rename_lookups       156765402                       # Number of integer rename lookups
system.cpu0.rename.fp_rename_lookups          3172136                       # Number of floating rename lookups
system.cpu0.rename.CommittedMaps             69907240                       # Number of HB maps that are committed
system.cpu0.rename.UndoneMaps                41056774                       # Number of HB maps that are undone due to squashing
system.cpu0.rename.serializingInsts               956                       # count of serializing insts renamed
system.cpu0.rename.tempSerializingInsts          1228                       # count of temporary serializing insts renamed
system.cpu0.rename.skidInsts                   960721                       # count of insts added to the skid buffer
system.cpu0.memDep0.insertedLoads            12007419                       # Number of loads inserted to the mem dependence unit.
system.cpu0.memDep0.insertedStores            8949597                       # Number of stores inserted to the mem dependence unit.
system.cpu0.memDep0.conflictingLoads           504844                       # Number of conflicting loads.
system.cpu0.memDep0.conflictingStores          192949                       # Number of conflicting stores.
system.cpu0.iq.iqInstsAdded                  94237442                       # Number of instructions added to the IQ (excludes non-spec)
system.cpu0.iq.iqNonSpecInstsAdded              53272                       # Number of non-speculative instructions added to the IQ
system.cpu0.iq.iqInstsIssued                 84302626                       # Number of instructions issued
system.cpu0.iq.iqSquashedInstsIssued           443678                       # Number of squashed instructions issued
system.cpu0.iq.iqSquashedInstsExamined       28852018                       # Number of squashed instructions iterated over during squash; mainly for profiling
system.cpu0.iq.iqSquashedOperandsExamined     41835832                       # Number of squashed operands that are examined and possibly removed from graph
system.cpu0.iq.iqSquashedNonSpecRemoved         53248                       # Number of squashed non-spec instructions that were removed
system.cpu0.iq.issued_per_cycle::samples     30534411                       # Number of insts issued each cycle
system.cpu0.iq.issued_per_cycle::mean        2.760906                       # Number of insts issued each cycle
system.cpu0.iq.issued_per_cycle::stdev       2.516610                       # Number of insts issued each cycle
system.cpu0.iq.issued_per_cycle::underflows            0      0.00%      0.00% # Number of insts issued each cycle
system.cpu0.iq.issued_per_cycle::0            9480250     31.05%     31.05% # Number of insts issued each cycle
system.cpu0.iq.issued_per_cycle::1            2878174      9.43%     40.47% # Number of insts issued each cycle
system.cpu0.iq.issued_per_cycle::2            3158918     10.35%     50.82% # Number of insts issued each cycle
system.cpu0.iq.issued_per_cycle::3            3172066     10.39%     61.21% # Number of insts issued each cycle
system.cpu0.iq.issued_per_cycle::4            3199103     10.48%     71.68% # Number of insts issued each cycle
system.cpu0.iq.issued_per_cycle::5            2814154      9.22%     80.90% # Number of insts issued each cycle
system.cpu0.iq.issued_per_cycle::6            3131664     10.26%     91.16% # Number of insts issued each cycle
system.cpu0.iq.issued_per_cycle::7            1667404      5.46%     96.62% # Number of insts issued each cycle
system.cpu0.iq.issued_per_cycle::8            1032678      3.38%    100.00% # Number of insts issued each cycle
system.cpu0.iq.issued_per_cycle::overflows            0      0.00%    100.00% # Number of insts issued each cycle
system.cpu0.iq.issued_per_cycle::min_value            0                       # Number of insts issued each cycle
system.cpu0.iq.issued_per_cycle::max_value            8                       # Number of insts issued each cycle
system.cpu0.iq.issued_per_cycle::total       30534411                       # Number of insts issued each cycle
system.cpu0.iq.fu_full::No_OpClass                  0      0.00%      0.00% # attempts to use FU when none available
system.cpu0.iq.fu_full::IntAlu                 814766     73.61%     73.61% # attempts to use FU when none available
system.cpu0.iq.fu_full::IntMult                     0      0.00%     73.61% # attempts to use FU when none available
system.cpu0.iq.fu_full::IntDiv                      0      0.00%     73.61% # attempts to use FU when none available
system.cpu0.iq.fu_full::FloatAdd                14423      1.30%     74.92% # attempts to use FU when none available
system.cpu0.iq.fu_full::FloatCmp                    0      0.00%     74.92% # attempts to use FU when none available
system.cpu0.iq.fu_full::FloatCvt                    0      0.00%     74.92% # attempts to use FU when none available
system.cpu0.iq.fu_full::FloatMult                   0      0.00%     74.92% # attempts to use FU when none available
system.cpu0.iq.fu_full::FloatMultAcc                0      0.00%     74.92% # attempts to use FU when none available
system.cpu0.iq.fu_full::FloatDiv                    0      0.00%     74.92% # attempts to use FU when none available
system.cpu0.iq.fu_full::FloatMisc                   0      0.00%     74.92% # attempts to use FU when none available
system.cpu0.iq.fu_full::FloatSqrt                   0      0.00%     74.92% # attempts to use FU when none available
system.cpu0.iq.fu_full::SimdAdd                     0      0.00%     74.92% # attempts to use FU when none available
system.cpu0.iq.fu_full::SimdAddAcc                  0      0.00%     74.92% # attempts to use FU when none available
system.cpu0.iq.fu_full::SimdAlu                     0      0.00%     74.92% # attempts to use FU when none available
system.cpu0.iq.fu_full::SimdCmp                     0      0.00%     74.92% # attempts to use FU when none available
system.cpu0.iq.fu_full::SimdCvt                     0      0.00%     74.92% # attempts to use FU when none available
system.cpu0.iq.fu_full::SimdMisc                    0      0.00%     74.92% # attempts to use FU when none available
system.cpu0.iq.fu_full::SimdMult                    0      0.00%     74.92% # attempts to use FU when none available
system.cpu0.iq.fu_full::SimdMultAcc                 0      0.00%     74.92% # attempts to use FU when none available
system.cpu0.iq.fu_full::SimdShift                   0      0.00%     74.92% # attempts to use FU when none available
system.cpu0.iq.fu_full::SimdShiftAcc                0      0.00%     74.92% # attempts to use FU when none available
system.cpu0.iq.fu_full::SimdSqrt                    0      0.00%     74.92% # attempts to use FU when none available
system.cpu0.iq.fu_full::SimdFloatAdd                0      0.00%     74.92% # attempts to use FU when none available
system.cpu0.iq.fu_full::SimdFloatAlu                0      0.00%     74.92% # attempts to use FU when none available
system.cpu0.iq.fu_full::SimdFloatCmp                0      0.00%     74.92% # attempts to use FU when none available
system.cpu0.iq.fu_full::SimdFloatCvt                0      0.00%     74.92% # attempts to use FU when none available
system.cpu0.iq.fu_full::SimdFloatDiv                0      0.00%     74.92% # attempts to use FU when none available
system.cpu0.iq.fu_full::SimdFloatMisc               0      0.00%     74.92% # attempts to use FU when none available
system.cpu0.iq.fu_full::SimdFloatMult               0      0.00%     74.92% # attempts to use FU when none available
system.cpu0.iq.fu_full::SimdFloatMultAcc            0      0.00%     74.92% # attempts to use FU when none available
system.cpu0.iq.fu_full::SimdFloatSqrt               0      0.00%     74.92% # attempts to use FU when none available
system.cpu0.iq.fu_full::MemRead                101505      9.17%     84.09% # attempts to use FU when none available
system.cpu0.iq.fu_full::MemWrite                87406      7.90%     91.98% # attempts to use FU when none available
system.cpu0.iq.fu_full::FloatMemRead              572      0.05%     92.04% # attempts to use FU when none available
system.cpu0.iq.fu_full::FloatMemWrite           88141      7.96%    100.00% # attempts to use FU when none available
system.cpu0.iq.fu_full::IprAccess                   0      0.00%    100.00% # attempts to use FU when none available
system.cpu0.iq.fu_full::InstPrefetch                0      0.00%    100.00% # attempts to use FU when none available
system.cpu0.iq.FU_type_0::No_OpClass           514967      0.61%      0.61% # Type of FU issued
system.cpu0.iq.FU_type_0::IntAlu             63862211     75.75%     76.36% # Type of FU issued
system.cpu0.iq.FU_type_0::IntMult               73194      0.09%     76.45% # Type of FU issued
system.cpu0.iq.FU_type_0::IntDiv                87859      0.10%     76.56% # Type of FU issued
system.cpu0.iq.FU_type_0::FloatAdd            1176149      1.40%     77.95% # Type of FU issued
system.cpu0.iq.FU_type_0::FloatCmp                  0      0.00%     77.95% # Type of FU issued
system.cpu0.iq.FU_type_0::FloatCvt                  0      0.00%     77.95% # Type of FU issued
system.cpu0.iq.FU_type_0::FloatMult                 0      0.00%     77.95% # Type of FU issued
system.cpu0.iq.FU_type_0::FloatMultAcc              0      0.00%     77.95% # Type of FU issued
system.cpu0.iq.FU_type_0::FloatDiv                  0      0.00%     77.95% # Type of FU issued
system.cpu0.iq.FU_type_0::FloatMisc                 0      0.00%     77.95% # Type of FU issued
system.cpu0.iq.FU_type_0::FloatSqrt                 0      0.00%     77.95% # Type of FU issued
system.cpu0.iq.FU_type_0::SimdAdd                   0      0.00%     77.95% # Type of FU issued
system.cpu0.iq.FU_type_0::SimdAddAcc                0      0.00%     77.95% # Type of FU issued
system.cpu0.iq.FU_type_0::SimdAlu                   0      0.00%     77.95% # Type of FU issued
system.cpu0.iq.FU_type_0::SimdCmp                   0      0.00%     77.95% # Type of FU issued
system.cpu0.iq.FU_type_0::SimdCvt                   0      0.00%     77.95% # Type of FU issued
system.cpu0.iq.FU_type_0::SimdMisc                  0      0.00%     77.95% # Type of FU issued
system.cpu0.iq.FU_type_0::SimdMult                  0      0.00%     77.95% # Type of FU issued
system.cpu0.iq.FU_type_0::SimdMultAcc               0      0.00%     77.95% # Type of FU issued
system.cpu0.iq.FU_type_0::SimdShift                 0      0.00%     77.95% # Type of FU issued
system.cpu0.iq.FU_type_0::SimdShiftAcc              0      0.00%     77.95% # Type of FU issued
system.cpu0.iq.FU_type_0::SimdSqrt                  0      0.00%     77.95% # Type of FU issued
system.cpu0.iq.FU_type_0::SimdFloatAdd              0      0.00%     77.95% # Type of FU issued
system.cpu0.iq.FU_type_0::SimdFloatAlu              0      0.00%     77.95% # Type of FU issued
system.cpu0.iq.FU_type_0::SimdFloatCmp              0      0.00%     77.95% # Type of FU issued
system.cpu0.iq.FU_type_0::SimdFloatCvt              0      0.00%     77.95% # Type of FU issued
system.cpu0.iq.FU_type_0::SimdFloatDiv              0      0.00%     77.95% # Type of FU issued
system.cpu0.iq.FU_type_0::SimdFloatMisc             0      0.00%     77.95% # Type of FU issued
system.cpu0.iq.FU_type_0::SimdFloatMult             0      0.00%     77.95% # Type of FU issued
system.cpu0.iq.FU_type_0::SimdFloatMultAcc            0      0.00%     77.95% # Type of FU issued
system.cpu0.iq.FU_type_0::SimdFloatSqrt             0      0.00%     77.95% # Type of FU issued
system.cpu0.iq.FU_type_0::MemRead            10283468     12.20%     90.15% # Type of FU issued
system.cpu0.iq.FU_type_0::MemWrite            7630363      9.05%     99.20% # Type of FU issued
system.cpu0.iq.FU_type_0::FloatMemRead         393755      0.47%     99.67% # Type of FU issued
system.cpu0.iq.FU_type_0::FloatMemWrite        280660      0.33%    100.00% # Type of FU issued
system.cpu0.iq.FU_type_0::IprAccess                 0      0.00%    100.00% # Type of FU issued
system.cpu0.iq.FU_type_0::InstPrefetch              0      0.00%    100.00% # Type of FU issued
system.cpu0.iq.FU_type_0::total              84302626                       # Type of FU issued
system.cpu0.iq.rate                          2.760881                       # Inst issue rate
system.cpu0.iq.fu_busy_cnt                    1106813                       # FU busy when requested
system.cpu0.iq.fu_busy_rate                  0.013129                       # FU busy rate (busy events/executed inst)
system.cpu0.iq.int_inst_queue_reads         196730985                       # Number of integer instruction queue reads
system.cpu0.iq.int_inst_queue_writes        120095497                       # Number of integer instruction queue writes
system.cpu0.iq.int_inst_queue_wakeup_accesses     78845197                       # Number of integer instruction queue wakeup accesses
system.cpu0.iq.fp_inst_queue_reads            3959167                       # Number of floating instruction queue reads
system.cpu0.iq.fp_inst_queue_writes           3048341                       # Number of floating instruction queue writes
system.cpu0.iq.fp_inst_queue_wakeup_accesses      1796816                       # Number of floating instruction queue wakeup accesses
system.cpu0.iq.vec_inst_queue_reads                 0                       # Number of vector instruction queue reads
system.cpu0.iq.vec_inst_queue_writes                0                       # Number of vector instruction queue writes
system.cpu0.iq.vec_inst_queue_wakeup_accesses            0                       # Number of vector instruction queue wakeup accesses
system.cpu0.iq.int_alu_accesses              82896319                       # Number of integer alu accesses
system.cpu0.iq.fp_alu_accesses                1998153                       # Number of floating point alu accesses
system.cpu0.iq.vec_alu_accesses                     0                       # Number of vector alu accesses
system.cpu0.iew.lsq.thread0.forwLoads         1299303                       # Number of loads that had data forwarded from stores
system.cpu0.iew.lsq.thread0.invAddrLoads            0                       # Number of loads ignored due to an invalid address
system.cpu0.iew.lsq.thread0.squashedLoads      4160009                       # Number of loads squashed
system.cpu0.iew.lsq.thread0.ignoredResponses        11022                       # Number of memory responses ignored because the instruction is squashed
system.cpu0.iew.lsq.thread0.memOrderViolation         2644                       # Number of memory ordering violations
system.cpu0.iew.lsq.thread0.squashedStores      2521899                       # Number of stores squashed
system.cpu0.iew.lsq.thread0.invAddrSwpfs            0                       # Number of software prefetches ignored due to an invalid address
system.cpu0.iew.lsq.thread0.blockedLoads            0                       # Number of blocked loads due to partial load-store forwarding
system.cpu0.iew.lsq.thread0.rescheduledLoads           81                       # Number of loads that were rescheduled
system.cpu0.iew.lsq.thread0.cacheBlocked            1                       # Number of times an access to memory failed due to the cache being blocked
system.cpu0.iew.iewIdleCycles                       0                       # Number of cycles IEW is idle
system.cpu0.iew.iewSquashCycles               1071270                       # Number of cycles IEW is squashing
system.cpu0.iew.iewBlockCycles                3272696                       # Number of cycles IEW is blocking
system.cpu0.iew.iewUnblockCycles                 1063                       # Number of cycles IEW is unblocking
system.cpu0.iew.iewDispatchedInsts           94290714                       # Number of instructions dispatched to IQ
system.cpu0.iew.iewDispSquashedInsts            17652                       # Number of squashed instructions skipped by dispatch
system.cpu0.iew.iewDispLoadInsts             12007419                       # Number of dispatched load instructions
system.cpu0.iew.iewDispStoreInsts             8949597                       # Number of dispatched store instructions
system.cpu0.iew.iewDispNonSpecInsts             18875                       # Number of dispatched non-speculative instructions
system.cpu0.iew.iewIQFullEvents                   109                       # Number of times the IQ has become full, causing a stall
system.cpu0.iew.iewLSQFullEvents                 1107                       # Number of times the LSQ has become full, causing a stall
system.cpu0.iew.memOrderViolationEvents          2644                       # Number of memory order violations
system.cpu0.iew.predictedTakenIncorrect        304727                       # Number of branches that were predicted taken incorrectly
system.cpu0.iew.predictedNotTakenIncorrect      1101687                       # Number of branches that were predicted not taken incorrectly
system.cpu0.iew.branchMispredicts             1406414                       # Number of branch mispredicts detected at execute
system.cpu0.iew.iewExecutedInsts             81765315                       # Number of executed instructions
system.cpu0.iew.iewExecLoadInsts             10128784                       # Number of load instructions executed
system.cpu0.iew.iewExecSquashedInsts          2537309                       # Number of squashed instructions skipped in execute
system.cpu0.iew.exec_swp                            0                       # number of swp insts executed
system.cpu0.iew.exec_nop                            0                       # number of nop insts executed
system.cpu0.iew.exec_refs                    17704374                       # number of memory reference insts executed
system.cpu0.iew.exec_branches                 8868839                       # Number of branches executed
system.cpu0.iew.exec_stores                   7575590                       # Number of stores executed
system.cpu0.iew.exec_rate                    2.677785                       # Inst execution rate
system.cpu0.iew.wb_sent                      81228925                       # cumulative count of insts sent to commit
system.cpu0.iew.wb_count                     80642013                       # cumulative count of insts written-back
system.cpu0.iew.wb_producers                 56361242                       # num instructions producing a value
system.cpu0.iew.wb_consumers                 88336112                       # num instructions consuming a value
system.cpu0.iew.wb_rate                      2.640997                       # insts written-back per cycle
system.cpu0.iew.wb_fanout                    0.638032                       # average fanout of values written-back
system.cpu0.commit.commitSquashedInsts       28852893                       # The number of squashed insts skipped by commit
system.cpu0.commit.commitNonSpecStalls             24                       # The number of times commit has been forced to stall to communicate backwards
system.cpu0.commit.branchMispredicts          1070566                       # The number of times a branch was mispredicted
system.cpu0.commit.committed_per_cycle::samples     26192579                       # Number of insts commited each cycle
system.cpu0.commit.committed_per_cycle::mean     2.498369                       # Number of insts commited each cycle
system.cpu0.commit.committed_per_cycle::stdev     2.742145                       # Number of insts commited each cycle
system.cpu0.commit.committed_per_cycle::underflows            0      0.00%      0.00% # Number of insts commited each cycle
system.cpu0.commit.committed_per_cycle::0      9071087     34.63%     34.63% # Number of insts commited each cycle
system.cpu0.commit.committed_per_cycle::1      3855400     14.72%     49.35% # Number of insts commited each cycle
system.cpu0.commit.committed_per_cycle::2      2685261     10.25%     59.60% # Number of insts commited each cycle
system.cpu0.commit.committed_per_cycle::3      3631928     13.87%     73.47% # Number of insts commited each cycle
system.cpu0.commit.committed_per_cycle::4      1151485      4.40%     77.87% # Number of insts commited each cycle
system.cpu0.commit.committed_per_cycle::5      1177627      4.50%     82.36% # Number of insts commited each cycle
system.cpu0.commit.committed_per_cycle::6       828690      3.16%     85.53% # Number of insts commited each cycle
system.cpu0.commit.committed_per_cycle::7       478000      1.82%     87.35% # Number of insts commited each cycle
system.cpu0.commit.committed_per_cycle::8      3313101     12.65%    100.00% # Number of insts commited each cycle
system.cpu0.commit.committed_per_cycle::overflows            0      0.00%    100.00% # Number of insts commited each cycle
system.cpu0.commit.committed_per_cycle::min_value            0                       # Number of insts commited each cycle
system.cpu0.commit.committed_per_cycle::max_value            8                       # Number of insts commited each cycle
system.cpu0.commit.committed_per_cycle::total     26192579                       # Number of insts commited each cycle
system.cpu0.commit.committedInsts            34552294                       # Number of instructions committed
system.cpu0.commit.committedOps              65438729                       # Number of ops (including micro ops) committed
system.cpu0.commit.swp_count                        0                       # Number of s/w prefetches committed
system.cpu0.commit.refs                      14275106                       # Number of memory references committed
system.cpu0.commit.loads                      7847409                       # Number of loads committed
system.cpu0.commit.membars                          0                       # Number of memory barriers committed
system.cpu0.commit.branches                   7601691                       # Number of branches committed
system.cpu0.commit.vec_insts                        0                       # Number of committed Vector instructions.
system.cpu0.commit.fp_insts                   1335903                       # Number of committed floating point instructions.
system.cpu0.commit.int_insts                 64435229                       # Number of committed integer instructions.
system.cpu0.commit.function_calls              474463                       # Number of function calls committed.
system.cpu0.commit.op_class_0::No_OpClass       266054      0.41%      0.41% # Class of committed instruction
system.cpu0.commit.op_class_0::IntAlu        49756868     76.04%     76.44% # Class of committed instruction
system.cpu0.commit.op_class_0::IntMult          53824      0.08%     76.52% # Class of committed instruction
system.cpu0.commit.op_class_0::IntDiv           77749      0.12%     76.64% # Class of committed instruction
system.cpu0.commit.op_class_0::FloatAdd       1009128      1.54%     78.19% # Class of committed instruction
system.cpu0.commit.op_class_0::FloatCmp             0      0.00%     78.19% # Class of committed instruction
system.cpu0.commit.op_class_0::FloatCvt             0      0.00%     78.19% # Class of committed instruction
system.cpu0.commit.op_class_0::FloatMult            0      0.00%     78.19% # Class of committed instruction
system.cpu0.commit.op_class_0::FloatMultAcc            0      0.00%     78.19% # Class of committed instruction
system.cpu0.commit.op_class_0::FloatDiv             0      0.00%     78.19% # Class of committed instruction
system.cpu0.commit.op_class_0::FloatMisc            0      0.00%     78.19% # Class of committed instruction
system.cpu0.commit.op_class_0::FloatSqrt            0      0.00%     78.19% # Class of committed instruction
system.cpu0.commit.op_class_0::SimdAdd              0      0.00%     78.19% # Class of committed instruction
system.cpu0.commit.op_class_0::SimdAddAcc            0      0.00%     78.19% # Class of committed instruction
system.cpu0.commit.op_class_0::SimdAlu              0      0.00%     78.19% # Class of committed instruction
system.cpu0.commit.op_class_0::SimdCmp              0      0.00%     78.19% # Class of committed instruction
system.cpu0.commit.op_class_0::SimdCvt              0      0.00%     78.19% # Class of committed instruction
system.cpu0.commit.op_class_0::SimdMisc             0      0.00%     78.19% # Class of committed instruction
system.cpu0.commit.op_class_0::SimdMult             0      0.00%     78.19% # Class of committed instruction
system.cpu0.commit.op_class_0::SimdMultAcc            0      0.00%     78.19% # Class of committed instruction
system.cpu0.commit.op_class_0::SimdShift            0      0.00%     78.19% # Class of committed instruction
system.cpu0.commit.op_class_0::SimdShiftAcc            0      0.00%     78.19% # Class of committed instruction
system.cpu0.commit.op_class_0::SimdSqrt             0      0.00%     78.19% # Class of committed instruction
system.cpu0.commit.op_class_0::SimdFloatAdd            0      0.00%     78.19% # Class of committed instruction
system.cpu0.commit.op_class_0::SimdFloatAlu            0      0.00%     78.19% # Class of committed instruction
system.cpu0.commit.op_class_0::SimdFloatCmp            0      0.00%     78.19% # Class of committed instruction
system.cpu0.commit.op_class_0::SimdFloatCvt            0      0.00%     78.19% # Class of committed instruction
system.cpu0.commit.op_class_0::SimdFloatDiv            0      0.00%     78.19% # Class of committed instruction
system.cpu0.commit.op_class_0::SimdFloatMisc            0      0.00%     78.19% # Class of committed instruction
system.cpu0.commit.op_class_0::SimdFloatMult            0      0.00%     78.19% # Class of committed instruction
system.cpu0.commit.op_class_0::SimdFloatMultAcc            0      0.00%     78.19% # Class of committed instruction
system.cpu0.commit.op_class_0::SimdFloatSqrt            0      0.00%     78.19% # Class of committed instruction
system.cpu0.commit.op_class_0::MemRead        7565087     11.56%     89.75% # Class of committed instruction
system.cpu0.commit.op_class_0::MemWrite       6427697      9.82%     99.57% # Class of committed instruction
system.cpu0.commit.op_class_0::FloatMemRead       282322      0.43%    100.00% # Class of committed instruction
system.cpu0.commit.op_class_0::FloatMemWrite            0      0.00%    100.00% # Class of committed instruction
system.cpu0.commit.op_class_0::IprAccess            0      0.00%    100.00% # Class of committed instruction
system.cpu0.commit.op_class_0::InstPrefetch            0      0.00%    100.00% # Class of committed instruction
system.cpu0.commit.op_class_0::total         65438729                       # Class of committed instruction
system.cpu0.commit.bw_lim_events              3313101                       # number cycles where commit BW limit reached
system.cpu0.rob.rob_reads                   117171100                       # The number of ROB reads
system.cpu0.rob.rob_writes                  193011042                       # The number of ROB writes
system.cpu0.timesIdled                             31                       # Number of times that the entire CPU went into an idle state and unscheduled itself
system.cpu0.idleCycles                            277                       # Total number of cycles that the CPU has spent unscheduled due to idling
system.cpu0.committedInsts                   34552294                       # Number of Instructions Simulated
system.cpu0.committedOps                     65438729                       # Number of Ops (including micro ops) Simulated
system.cpu0.cpi                              0.883724                       # CPI: Cycles Per Instruction
system.cpu0.cpi_total                        0.883724                       # CPI: Total CPI of All Threads
system.cpu0.ipc                              1.131575                       # IPC: Instructions Per Cycle
system.cpu0.ipc_total                        1.131575                       # IPC: Total IPC of All Threads
system.cpu0.int_regfile_reads               118312329                       # number of integer regfile reads
system.cpu0.int_regfile_writes               63195329                       # number of integer regfile writes
system.cpu0.fp_regfile_reads                  2533033                       # number of floating regfile reads
system.cpu0.fp_regfile_writes                 1250647                       # number of floating regfile writes
system.cpu0.cc_regfile_reads                 41247889                       # number of cc regfile reads
system.cpu0.cc_regfile_writes                21600589                       # number of cc regfile writes
system.cpu0.misc_regfile_reads               35919127                       # number of misc regfile reads
system.cpu0.dcache.tags.pwrStateResidencyTicks::UNDEFINED  15267344125                       # Cumulative time (in ticks) in various power states
system.cpu0.dcache.tags.replacements             5148                       # number of replacements
system.cpu0.dcache.tags.tagsinuse                1024                       # Cycle average of tags in use
system.cpu0.dcache.tags.total_refs             601104                       # Total number of references to valid blocks.
system.cpu0.dcache.tags.sampled_refs             5148                       # Sample count of references to valid blocks.
system.cpu0.dcache.tags.avg_refs           116.764569                       # Average number of references to valid blocks.
system.cpu0.dcache.tags.warmup_cycle                0                       # Cycle when the warmup percentage was hit.
system.cpu0.dcache.tags.occ_blocks::cpu0.data         1024                       # Average occupied blocks per requestor
system.cpu0.dcache.tags.occ_percent::cpu0.data            1                       # Average percentage of cache occupancy
system.cpu0.dcache.tags.occ_percent::total            1                       # Average percentage of cache occupancy
system.cpu0.dcache.tags.occ_task_id_blocks::1024         1024                       # Occupied blocks per task id
system.cpu0.dcache.tags.age_task_id_blocks_1024::0            5                       # Occupied blocks per task id
system.cpu0.dcache.tags.age_task_id_blocks_1024::1           23                       # Occupied blocks per task id
system.cpu0.dcache.tags.age_task_id_blocks_1024::2          261                       # Occupied blocks per task id
system.cpu0.dcache.tags.age_task_id_blocks_1024::3          507                       # Occupied blocks per task id
system.cpu0.dcache.tags.age_task_id_blocks_1024::4          228                       # Occupied blocks per task id
system.cpu0.dcache.tags.occ_task_id_percent::1024            1                       # Percentage of cache occupancy per task id
system.cpu0.dcache.tags.tag_accesses         60569576                       # Number of tag accesses
system.cpu0.dcache.tags.data_accesses        60569576                       # Number of data accesses
system.cpu0.dcache.pwrStateResidencyTicks::UNDEFINED  15267344125                       # Cumulative time (in ticks) in various power states
system.cpu0.dcache.ReadReq_hits::cpu0.data      8706047                       # number of ReadReq hits
system.cpu0.dcache.ReadReq_hits::total        8706047                       # number of ReadReq hits
system.cpu0.dcache.WriteReq_hits::cpu0.data      6427513                       # number of WriteReq hits
system.cpu0.dcache.WriteReq_hits::total       6427513                       # number of WriteReq hits
system.cpu0.dcache.demand_hits::cpu0.data     15133560                       # number of demand (read+write) hits
system.cpu0.dcache.demand_hits::total        15133560                       # number of demand (read+write) hits
system.cpu0.dcache.overall_hits::cpu0.data     15133560                       # number of overall hits
system.cpu0.dcache.overall_hits::total       15133560                       # number of overall hits
system.cpu0.dcache.ReadReq_misses::cpu0.data         4125                       # number of ReadReq misses
system.cpu0.dcache.ReadReq_misses::total         4125                       # number of ReadReq misses
system.cpu0.dcache.WriteReq_misses::cpu0.data         3422                       # number of WriteReq misses
system.cpu0.dcache.WriteReq_misses::total         3422                       # number of WriteReq misses
system.cpu0.dcache.demand_misses::cpu0.data         7547                       # number of demand (read+write) misses
system.cpu0.dcache.demand_misses::total          7547                       # number of demand (read+write) misses
system.cpu0.dcache.overall_misses::cpu0.data         7547                       # number of overall misses
system.cpu0.dcache.overall_misses::total         7547                       # number of overall misses
system.cpu0.dcache.ReadReq_miss_latency::cpu0.data     58067500                       # number of ReadReq miss cycles
system.cpu0.dcache.ReadReq_miss_latency::total     58067500                       # number of ReadReq miss cycles
system.cpu0.dcache.WriteReq_miss_latency::cpu0.data    486936500                       # number of WriteReq miss cycles
system.cpu0.dcache.WriteReq_miss_latency::total    486936500                       # number of WriteReq miss cycles
system.cpu0.dcache.demand_miss_latency::cpu0.data    545004000                       # number of demand (read+write) miss cycles
system.cpu0.dcache.demand_miss_latency::total    545004000                       # number of demand (read+write) miss cycles
system.cpu0.dcache.overall_miss_latency::cpu0.data    545004000                       # number of overall miss cycles
system.cpu0.dcache.overall_miss_latency::total    545004000                       # number of overall miss cycles
system.cpu0.dcache.ReadReq_accesses::cpu0.data      8710172                       # number of ReadReq accesses(hits+misses)
system.cpu0.dcache.ReadReq_accesses::total      8710172                       # number of ReadReq accesses(hits+misses)
system.cpu0.dcache.WriteReq_accesses::cpu0.data      6430935                       # number of WriteReq accesses(hits+misses)
system.cpu0.dcache.WriteReq_accesses::total      6430935                       # number of WriteReq accesses(hits+misses)
system.cpu0.dcache.demand_accesses::cpu0.data     15141107                       # number of demand (read+write) accesses
system.cpu0.dcache.demand_accesses::total     15141107                       # number of demand (read+write) accesses
system.cpu0.dcache.overall_accesses::cpu0.data     15141107                       # number of overall (read+write) accesses
system.cpu0.dcache.overall_accesses::total     15141107                       # number of overall (read+write) accesses
system.cpu0.dcache.ReadReq_miss_rate::cpu0.data     0.000474                       # miss rate for ReadReq accesses
system.cpu0.dcache.ReadReq_miss_rate::total     0.000474                       # miss rate for ReadReq accesses
system.cpu0.dcache.WriteReq_miss_rate::cpu0.data     0.000532                       # miss rate for WriteReq accesses
system.cpu0.dcache.WriteReq_miss_rate::total     0.000532                       # miss rate for WriteReq accesses
[...]
system.l2.ReadCleanReq_miss_rate::cpu0.inst     0.000584                       # miss rate for ReadCleanReq accesses
system.l2.ReadCleanReq_miss_rate::total      0.000584                       # miss rate for ReadCleanReq accesses
system.l2.ReadSharedReq_miss_rate::cpu0.data     0.021665                       # miss rate for ReadSharedReq accesses
system.l2.ReadSharedReq_miss_rate::total     0.021665                       # miss rate for ReadSharedReq accesses
system.l2.demand_miss_rate::cpu0.inst        0.000584                       # miss rate for demand accesses
system.l2.demand_miss_rate::cpu0.data        0.666084                       # miss rate for demand accesses
system.l2.demand_miss_rate::total            0.499927                       # miss rate for demand accesses
system.l2.overall_miss_rate::cpu0.inst       0.000584                       # miss rate for overall accesses
system.l2.overall_miss_rate::cpu0.data       0.666084                       # miss rate for overall accesses
system.l2.overall_miss_rate::total           0.499927                       # miss rate for overall accesses
system.l2.ReadExReq_avg_miss_latency::cpu0.data 139992.332645                       # average ReadExReq miss latency
system.l2.ReadExReq_avg_miss_latency::total 139992.332645                       # average ReadExReq miss latency
system.l2.ReadCleanReq_avg_miss_latency::cpu0.inst        89500                       # average ReadCleanReq miss latency
system.l2.ReadCleanReq_avg_miss_latency::total        89500                       # average ReadCleanReq miss latency
system.l2.ReadSharedReq_avg_miss_latency::cpu0.data 127631.578947                       # average ReadSharedReq miss latency
system.l2.ReadSharedReq_avg_miss_latency::total 127631.578947                       # average ReadSharedReq miss latency
system.l2.demand_avg_miss_latency::cpu0.inst        89500                       # average overall miss latency
system.l2.demand_avg_miss_latency::cpu0.data 139855.351414                       # average overall miss latency
system.l2.demand_avg_miss_latency::total 139840.670554                       # average overall miss latency
system.l2.overall_avg_miss_latency::cpu0.inst        89500                       # average overall miss latency
system.l2.overall_avg_miss_latency::cpu0.data 139855.351414                       # average overall miss latency
system.l2.overall_avg_miss_latency::total 139840.670554                       # average overall miss latency
system.l2.blocked_cycles::no_mshrs                  0                       # number of cycles access was blocked
system.l2.blocked_cycles::no_targets                0                       # number of cycles access was blocked
system.l2.blocked::no_mshrs                         0                       # number of cycles access was blocked
system.l2.blocked::no_targets                       0                       # number of cycles access was blocked
system.l2.avg_blocked_cycles::no_mshrs            nan                       # average number of cycles each access was blocked
system.l2.avg_blocked_cycles::no_targets          nan                       # average number of cycles each access was blocked
system.l2.writebacks::writebacks                 1001                       # number of writebacks
system.l2.writebacks::total                      1001                       # number of writebacks
system.l2.ReadExReq_mshr_misses::cpu0.data         3391                       # number of ReadExReq MSHR misses
system.l2.ReadExReq_mshr_misses::total           3391                       # number of ReadExReq MSHR misses
system.l2.ReadCleanReq_mshr_misses::cpu0.inst            1                       # number of ReadCleanReq MSHR misses
system.l2.ReadCleanReq_mshr_misses::total            1                       # number of ReadCleanReq MSHR misses
system.l2.ReadSharedReq_mshr_misses::cpu0.data           38                       # number of ReadSharedReq MSHR misses
system.l2.ReadSharedReq_mshr_misses::total           38                       # number of ReadSharedReq MSHR misses
system.l2.demand_mshr_misses::cpu0.inst             1                       # number of demand (read+write) MSHR misses
system.l2.demand_mshr_misses::cpu0.data          3429                       # number of demand (read+write) MSHR misses
system.l2.demand_mshr_misses::total              3430                       # number of demand (read+write) MSHR misses
system.l2.overall_mshr_misses::cpu0.inst            1                       # number of overall MSHR misses
system.l2.overall_mshr_misses::cpu0.data         3429                       # number of overall MSHR misses
system.l2.overall_mshr_misses::total             3430                       # number of overall MSHR misses
system.l2.ReadExReq_mshr_miss_latency::cpu0.data    440804000                       # number of ReadExReq MSHR miss cycles
system.l2.ReadExReq_mshr_miss_latency::total    440804000                       # number of ReadExReq MSHR miss cycles
system.l2.ReadCleanReq_mshr_miss_latency::cpu0.inst        79500                       # number of ReadCleanReq MSHR miss cycles
system.l2.ReadCleanReq_mshr_miss_latency::total        79500                       # number of ReadCleanReq MSHR miss cycles
system.l2.ReadSharedReq_mshr_miss_latency::cpu0.data      4470000                       # number of ReadSharedReq MSHR miss cycles
system.l2.ReadSharedReq_mshr_miss_latency::total      4470000                       # number of ReadSharedReq MSHR miss cycles
system.l2.demand_mshr_miss_latency::cpu0.inst        79500                       # number of demand (read+write) MSHR miss cycles
system.l2.demand_mshr_miss_latency::cpu0.data    445274000                       # number of demand (read+write) MSHR miss cycles
system.l2.demand_mshr_miss_latency::total    445353500                       # number of demand (read+write) MSHR miss cycles
system.l2.overall_mshr_miss_latency::cpu0.inst        79500                       # number of overall MSHR miss cycles
system.l2.overall_mshr_miss_latency::cpu0.data    445274000                       # number of overall MSHR miss cycles
system.l2.overall_mshr_miss_latency::total    445353500                       # number of overall MSHR miss cycles
system.l2.ReadExReq_mshr_miss_rate::cpu0.data     0.999116                       # mshr miss rate for ReadExReq accesses
system.l2.ReadExReq_mshr_miss_rate::total     0.999116                       # mshr miss rate for ReadExReq accesses
system.l2.ReadCleanReq_mshr_miss_rate::cpu0.inst     0.000584                       # mshr miss rate for ReadCleanReq accesses
system.l2.ReadCleanReq_mshr_miss_rate::total     0.000584                       # mshr miss rate for ReadCleanReq accesses
system.l2.ReadSharedReq_mshr_miss_rate::cpu0.data     0.021665                       # mshr miss rate for ReadSharedReq accesses
system.l2.ReadSharedReq_mshr_miss_rate::total     0.021665                       # mshr miss rate for ReadSharedReq accesses
system.l2.demand_mshr_miss_rate::cpu0.inst     0.000584                       # mshr miss rate for demand accesses
system.l2.demand_mshr_miss_rate::cpu0.data     0.666084                       # mshr miss rate for demand accesses
system.l2.demand_mshr_miss_rate::total       0.499927                       # mshr miss rate for demand accesses
system.l2.overall_mshr_miss_rate::cpu0.inst     0.000584                       # mshr miss rate for overall accesses
system.l2.overall_mshr_miss_rate::cpu0.data     0.666084                       # mshr miss rate for overall accesses
system.l2.overall_mshr_miss_rate::total      0.499927                       # mshr miss rate for overall accesses
system.l2.ReadExReq_avg_mshr_miss_latency::cpu0.data 129992.332645                       # average ReadExReq mshr miss latency
system.l2.ReadExReq_avg_mshr_miss_latency::total 129992.332645                       # average ReadExReq mshr miss latency
system.l2.ReadCleanReq_avg_mshr_miss_latency::cpu0.inst        79500                       # average ReadCleanReq mshr miss latency
system.l2.ReadCleanReq_avg_mshr_miss_latency::total        79500                       # average ReadCleanReq mshr miss latency
system.l2.ReadSharedReq_avg_mshr_miss_latency::cpu0.data 117631.578947                       # average ReadSharedReq mshr miss latency
system.l2.ReadSharedReq_avg_mshr_miss_latency::total 117631.578947                       # average ReadSharedReq mshr miss latency
system.l2.demand_avg_mshr_miss_latency::cpu0.inst        79500                       # average overall mshr miss latency
system.l2.demand_avg_mshr_miss_latency::cpu0.data 129855.351414                       # average overall mshr miss latency
system.l2.demand_avg_mshr_miss_latency::total 129840.670554                       # average overall mshr miss latency
system.l2.overall_avg_mshr_miss_latency::cpu0.inst        79500                       # average overall mshr miss latency
system.l2.overall_avg_mshr_miss_latency::cpu0.data 129855.351414                       # average overall mshr miss latency
system.l2.overall_avg_mshr_miss_latency::total 129840.670554                       # average overall mshr miss latency
system.membus.snoop_filter.tot_requests          4975                       # Total number of requests made to the snoop filter.
system.membus.snoop_filter.hit_single_requests         1545                       # Number of requests hitting in the snoop filter with a single holder of the requested data.
system.membus.snoop_filter.hit_multi_requests            0                       # Number of requests hitting in the snoop filter with multiple (>1) holders of the requested data.
system.membus.snoop_filter.tot_snoops               0                       # Total number of snoops made to the snoop filter.
system.membus.snoop_filter.hit_single_snoops            0                       # Number of snoops hitting in the snoop filter with a single holder of the requested data.
system.membus.snoop_filter.hit_multi_snoops            0                       # Number of snoops hitting in the snoop filter with multiple (>1) holders of the requested data.
system.membus.pwrStateResidencyTicks::UNDEFINED  15267344125                       # Cumulative time (in ticks) in various power states
system.membus.trans_dist::ReadResp                 39                       # Transaction distribution
system.membus.trans_dist::WritebackDirty         1001                       # Transaction distribution
system.membus.trans_dist::CleanEvict              544                       # Transaction distribution
system.membus.trans_dist::ReadExReq              3391                       # Transaction distribution
system.membus.trans_dist::ReadExResp             3391                       # Transaction distribution
system.membus.trans_dist::ReadSharedReq            39                       # Transaction distribution
system.membus.pkt_count_system.l2.mem_side::system.mem_ctrls.port         8405                       # Packet count per connected master and slave (bytes)
system.membus.pkt_count_system.l2.mem_side::total         8405                       # Packet count per connected master and slave (bytes)
system.membus.pkt_count::total                   8405                       # Packet count per connected master and slave (bytes)
system.membus.pkt_size_system.l2.mem_side::system.mem_ctrls.port       283584                       # Cumulative packet size per connected master and slave (bytes)
system.membus.pkt_size_system.l2.mem_side::total       283584                       # Cumulative packet size per connected master and slave (bytes)
system.membus.pkt_size::total                  283584                       # Cumulative packet size per connected master and slave (bytes)
system.membus.snoops                                0                       # Total snoops (count)
system.membus.snoopTraffic                          0                       # Total snoop traffic (bytes)
system.membus.snoop_fanout::samples              3430                       # Request fanout histogram
system.membus.snoop_fanout::mean                    0                       # Request fanout histogram
system.membus.snoop_fanout::stdev                   0                       # Request fanout histogram
system.membus.snoop_fanout::underflows              0      0.00%      0.00% # Request fanout histogram
system.membus.snoop_fanout::0                    3430    100.00%    100.00% # Request fanout histogram
system.membus.snoop_fanout::1                       0      0.00%    100.00% # Request fanout histogram
system.membus.snoop_fanout::overflows               0      0.00%    100.00% # Request fanout histogram
system.membus.snoop_fanout::min_value               0                       # Request fanout histogram
system.membus.snoop_fanout::max_value               0                       # Request fanout histogram
system.membus.snoop_fanout::total                3430                       # Request fanout histogram
system.membus.reqLayer8.occupancy             9853000                       # Layer occupancy (ticks)
system.membus.reqLayer8.utilization               0.1                       # Layer utilization (%)
system.membus.respLayer1.occupancy           18893250                       # Layer occupancy (ticks)
system.membus.respLayer1.utilization              0.1                       # Layer utilization (%)
system.tol2bus.snoop_filter.tot_requests        13726                       # Total number of requests made to the snoop filter.
system.tol2bus.snoop_filter.hit_single_requests         6861                       # Number of requests hitting in the snoop filter with a single holder of the requested data.
system.tol2bus.snoop_filter.hit_multi_requests           20                       # Number of requests hitting in the snoop filter with multiple (>1) holders of the requested data.
system.tol2bus.snoop_filter.tot_snoops            309                       # Total number of snoops made to the snoop filter.
system.tol2bus.snoop_filter.hit_single_snoops          309                       # Number of snoops hitting in the snoop filter with a single holder of the requested data.
system.tol2bus.snoop_filter.hit_multi_snoops            0                       # Number of snoops hitting in the snoop filter with multiple (>1) holders of the requested data.
system.tol2bus.pwrStateResidencyTicks::UNDEFINED  15267344125                       # Cumulative time (in ticks) in various power states
system.tol2bus.trans_dist::ReadResp              3469                       # Transaction distribution
system.tol2bus.trans_dist::WritebackDirty         5634                       # Transaction distribution
system.tol2bus.trans_dist::WritebackClean         1713                       # Transaction distribution
system.tol2bus.trans_dist::CleanEvict            1368                       # Transaction distribution
system.tol2bus.trans_dist::UpgradeReq               2                       # Transaction distribution
system.tol2bus.trans_dist::UpgradeResp              2                       # Transaction distribution
system.tol2bus.trans_dist::ReadExReq             3394                       # Transaction distribution
system.tol2bus.trans_dist::ReadExResp            3394                       # Transaction distribution
system.tol2bus.trans_dist::ReadCleanReq          1715                       # Transaction distribution
system.tol2bus.trans_dist::ReadSharedReq         1754                       # Transaction distribution
system.tol2bus.pkt_count_system.cpu0.icache.mem_side::system.l2.cpu_side         5141                       # Packet count per connected master and slave (bytes)
system.tol2bus.pkt_count_system.cpu0.dcache.mem_side::system.l2.cpu_side        15448                       # Packet count per connected master and slave (bytes)
system.tol2bus.pkt_count::total                 20589                       # Packet count per connected master and slave (bytes)
system.tol2bus.pkt_size_system.cpu0.icache.mem_side::system.l2.cpu_side       219264                       # Cumulative packet size per connected master and slave (bytes)
system.tol2bus.pkt_size_system.cpu0.dcache.mem_side::system.l2.cpu_side       625984                       # Cumulative packet size per connected master and slave (bytes)
system.tol2bus.pkt_size::total                 845248                       # Cumulative packet size per connected master and slave (bytes)
system.tol2bus.snoops                            1856                       # Total snoops (count)
system.tol2bus.snoopTraffic                     64192                       # Total snoop traffic (bytes)
system.tol2bus.snoop_fanout::samples             8719                       # Request fanout histogram
system.tol2bus.snoop_fanout::mean            0.037734                       # Request fanout histogram
system.tol2bus.snoop_fanout::stdev           0.190562                       # Request fanout histogram
system.tol2bus.snoop_fanout::underflows             0      0.00%      0.00% # Request fanout histogram
system.tol2bus.snoop_fanout::0                   8390     96.23%     96.23% # Request fanout histogram
system.tol2bus.snoop_fanout::1                    329      3.77%    100.00% # Request fanout histogram
system.tol2bus.snoop_fanout::2                      0      0.00%    100.00% # Request fanout histogram
system.tol2bus.snoop_fanout::3                      0      0.00%    100.00% # Request fanout histogram
system.tol2bus.snoop_fanout::4                      0      0.00%    100.00% # Request fanout histogram
system.tol2bus.snoop_fanout::5                      0      0.00%    100.00% # Request fanout histogram
system.tol2bus.snoop_fanout::6                      0      0.00%    100.00% # Request fanout histogram
system.tol2bus.snoop_fanout::7                      0      0.00%    100.00% # Request fanout histogram
system.tol2bus.snoop_fanout::8                      0      0.00%    100.00% # Request fanout histogram
system.tol2bus.snoop_fanout::9                      0      0.00%    100.00% # Request fanout histogram
system.tol2bus.snoop_fanout::10                     0      0.00%    100.00% # Request fanout histogram
system.tol2bus.snoop_fanout::11                     0      0.00%    100.00% # Request fanout histogram
system.tol2bus.snoop_fanout::12                     0      0.00%    100.00% # Request fanout histogram
system.tol2bus.snoop_fanout::13                     0      0.00%    100.00% # Request fanout histogram
system.tol2bus.snoop_fanout::14                     0      0.00%    100.00% # Request fanout histogram
system.tol2bus.snoop_fanout::15                     0      0.00%    100.00% # Request fanout histogram
system.tol2bus.snoop_fanout::16                     0      0.00%    100.00% # Request fanout histogram
system.tol2bus.snoop_fanout::overflows              0      0.00%    100.00% # Request fanout histogram
system.tol2bus.snoop_fanout::min_value              0                       # Request fanout histogram
system.tol2bus.snoop_fanout::max_value              1                       # Request fanout histogram
system.tol2bus.snoop_fanout::total               8719                       # Request fanout histogram
system.tol2bus.reqLayer0.occupancy           13209000                       # Layer occupancy (ticks)
system.tol2bus.reqLayer0.utilization              0.1                       # Layer utilization (%)
system.tol2bus.respLayer0.occupancy           2572500                       # Layer occupancy (ticks)
system.tol2bus.respLayer0.utilization             0.0                       # Layer utilization (%)
system.tol2bus.respLayer1.occupancy           7723499                       # Layer occupancy (ticks)
system.tol2bus.respLayer1.utilization             0.1                       # Layer utilization (%)

---------- End Simulation Statistics   ----------
