
---------- Begin Simulation Statistics ----------
sim_seconds                                  0.015267                       # Number of seconds simulated
sim_ticks                                 15267344125                       # Number of ticks simulated
final_tick                               2381705683500                       # Number of ticks from beginning of simulation (restored from checkpoints and never reset)
sim_freq                                 1000000000000                       # Frequency of simulated ticks
host_inst_rate                               20330631                       # Simulator instruction rate (inst/s)
host_op_rate                                 37335483                       # Simulator op (including micro ops) rate (op/s)
host_tick_rate                               59938846                       # Simulator tick rate (ticks/s)
host_mem_usage                                2332676                       # Number of bytes of host memory used
host_seconds                                   254.72                       # Real time elapsed on the host
sim_insts                                  5178523441                       # Number of instructions simulated
sim_ops                                    9509920491                       # Number of ops (including micro ops) simulated
system.voltage_domain.voltage                       1                       # Voltage in Volts
system.clk_domain.clock                          1000                       # Clock period in ticks
system.mem_ctrls.pwrStateResidencyTicks::UNDEFINED  15267344125                       # Cumulative time (in ticks) in various power states
system.mem_ctrls.bytes_read::cpu0.inst             64                       # Number of bytes read from this memory
system.mem_ctrls.bytes_read::cpu0.data        1084736                       # Number of bytes read from this memory
system.mem_ctrls.bytes_read::total            1084800                       # Number of bytes read from this memory
system.mem_ctrls.bytes_inst_read::cpu0.inst           64                       # Number of instructions bytes read from this memory
system.mem_ctrls.bytes_inst_read::total            64                       # Number of instructions bytes read from this memory
system.mem_ctrls.bytes_written::writebacks       974144                       # Number of bytes written to this memory
system.mem_ctrls.bytes_written::total          974144                       # Number of bytes written to this memory
system.mem_ctrls.num_reads::cpu0.inst               1                       # Number of read requests responded to by this memory
system.mem_ctrls.num_reads::cpu0.data           16949                       # Number of read requests responded to by this memory
system.mem_ctrls.num_reads::total               16950                       # Number of read requests responded to by this memory
system.mem_ctrls.num_writes::writebacks         15221                       # Number of write requests responded to by this memory
system.mem_ctrls.num_writes::total              15221                       # Number of write requests responded to by this memory
system.mem_ctrls.bw_read::cpu0.inst              4192                       # Total read bandwidth from this memory (bytes/s)
system.mem_ctrls.bw_read::cpu0.data          71049424                       # Total read bandwidth from this memory (bytes/s)
system.mem_ctrls.bw_read::total              71053616                       # Total read bandwidth from this memory (bytes/s)
system.mem_ctrls.bw_inst_read::cpu0.inst         4192                       # Instruction read bandwidth from this memory (bytes/s)
system.mem_ctrls.bw_inst_read::total             4192                       # Instruction read bandwidth from this memory (bytes/s)
system.mem_ctrls.bw_write::writebacks        63805728                       # Write bandwidth from this memory (bytes/s)
system.mem_ctrls.bw_write::total             63805728                       # Write bandwidth from this memory (bytes/s)
system.mem_ctrls.bw_total::writebacks        63805728                       # Total bandwidth to/from this memory (bytes/s)
system.mem_ctrls.bw_total::cpu0.inst             4192                       # Total bandwidth to/from this memory (bytes/s)
system.mem_ctrls.bw_total::cpu0.data         71049424                       # Total bandwidth to/from this memory (bytes/s)
system.mem_ctrls.bw_total::total            134859343                       # Total bandwidth to/from this memory (bytes/s)
system.mem_ctrls.readReqs                       16950                       # Number of read requests accepted
system.mem_ctrls.writeReqs                      15221                       # Number of write requests accepted
system.mem_ctrls.readBursts                     16950                       # Number of DRAM read bursts, including those serviced by the write queue
system.mem_ctrls.writeBursts                    15221                       # Number of DRAM write bursts, including those merged in the write queue
system.mem_ctrls.bytesReadDRAM                1084672                       # Total number of bytes read from DRAM
system.mem_ctrls.bytesReadWrQ                     128                       # Total number of bytes read from write queue
system.mem_ctrls.bytesWritten                  974144                       # Total number of bytes written to DRAM
system.mem_ctrls.bytesReadSys                 1084800                       # Total read bytes from the system interface side
system.mem_ctrls.bytesWrittenSys               974144                       # Total written bytes from the system interface side
system.mem_ctrls.servicedByWrQ                      2                       # Number of DRAM read bursts serviced by the write queue
system.mem_ctrls.mergedWrBursts                     0                       # Number of DRAM write bursts merged with an existing one
system.mem_ctrls.neitherReadNorWriteReqs            0                       # Number of requests that are neither read nor write
system.mem_ctrls.perBankRdBursts::0              1148                       # Per bank write bursts
system.mem_ctrls.perBankRdBursts::1              1131                       # Per bank write bursts
system.mem_ctrls.perBankRdBursts::2              1118                       # Per bank write bursts
system.mem_ctrls.perBankRdBursts::3              1135                       # Per bank write bursts
system.mem_ctrls.perBankRdBursts::4              1005                       # Per bank write bursts
system.mem_ctrls.perBankRdBursts::5               967                       # Per bank write bursts
system.mem_ctrls.perBankRdBursts::6              1027                       # Per bank write bursts
system.mem_ctrls.perBankRdBursts::7              1003                       # Per bank write bursts
system.mem_ctrls.perBankRdBursts::8              1038                       # Per bank write bursts
system.mem_ctrls.perBankRdBursts::9              1029                       # Per bank write bursts
system.mem_ctrls.perBankRdBursts::10             1030                       # Per bank write bursts
system.mem_ctrls.perBankRdBursts::11              986                       # Per bank write bursts
system.mem_ctrls.perBankRdBursts::12             1138                       # Per bank write bursts
system.mem_ctrls.perBankRdBursts::13             1118                       # Per bank write bursts
system.mem_ctrls.perBankRdBursts::14             1040                       # Per bank write bursts
system.mem_ctrls.perBankRdBursts::15             1035                       # Per bank write bursts
system.mem_ctrls.perBankWrBursts::0              1019                       # Per bank write bursts
system.mem_ctrls.perBankWrBursts::1              1025                       # Per bank write bursts
system.mem_ctrls.perBankWrBursts::2              1020                       # Per bank write bursts
system.mem_ctrls.perBankWrBursts::3              1018                       # Per bank write bursts
system.mem_ctrls.perBankWrBursts::4               914                       # Per bank write bursts
system.mem_ctrls.perBankWrBursts::5               867                       # Per bank write bursts
system.mem_ctrls.perBankWrBursts::6               921                       # Per bank write bursts
system.mem_ctrls.perBankWrBursts::7               905                       # Per bank write bursts
system.mem_ctrls.perBankWrBursts::8               921                       # Per bank write bursts
system.mem_ctrls.perBankWrBursts::9               926                       # Per bank write bursts
system.mem_ctrls.perBankWrBursts::10              908                       # Per bank write bursts
system.mem_ctrls.perBankWrBursts::11              905                       # Per bank write bursts
system.mem_ctrls.perBankWrBursts::12             1020                       # Per bank write bursts
system.mem_ctrls.perBankWrBursts::13              996                       # Per bank write bursts
system.mem_ctrls.perBankWrBursts::14              932                       # Per bank write bursts
system.mem_ctrls.perBankWrBursts::15              924                       # Per bank write bursts
system.mem_ctrls.numRdRetry                         0                       # Number of times read queue was full causing retry
system.mem_ctrls.numWrRetry                         0                       # Number of times write queue was full causing retry
system.mem_ctrls.totGap                   15265504000                       # Total gap between requests
system.mem_ctrls.readPktSize::0                     0                       # Read request sizes (log2)
system.mem_ctrls.readPktSize::1                     0                       # Read request sizes (log2)
system.mem_ctrls.readPktSize::2                     0                       # Read request sizes (log2)
system.mem_ctrls.readPktSize::3                     0                       # Read request sizes (log2)
system.mem_ctrls.readPktSize::4                     0                       # Read request sizes (log2)
system.mem_ctrls.readPktSize::5                     0                       # Read request sizes (log2)
system.mem_ctrls.readPktSize::6                 16950                       # Read request sizes (log2)
system.mem_ctrls.writePktSize::0                    0                       # Write request sizes (log2)
system.mem_ctrls.writePktSize::1                    0                       # Write request sizes (log2)
system.mem_ctrls.writePktSize::2                    0                       # Write request sizes (log2)
system.mem_ctrls.writePktSize::3                    0                       # Write request sizes (log2)
system.mem_ctrls.writePktSize::4                    0                       # Write request sizes (log2)
system.mem_ctrls.writePktSize::5                    0                       # Write request sizes (log2)
system.mem_ctrls.writePktSize::6                15221                       # Write request sizes (log2)
system.mem_ctrls.rdQLenPdf::0                   15720                       # What read queue length does an incoming req see
system.mem_ctrls.rdQLenPdf::1                    1212                       # What read queue length does an incoming req see
system.mem_ctrls.rdQLenPdf::2                      15                       # What read queue length does an incoming req see
system.mem_ctrls.rdQLenPdf::3                       1                       # What read queue length does an incoming req see
system.mem_ctrls.rdQLenPdf::4                       0                       # What read queue length does an incoming req see
system.mem_ctrls.rdQLenPdf::5                       0                       # What read queue length does an incoming req see
system.mem_ctrls.rdQLenPdf::6                       0                       # What read queue length does an incoming req see
system.mem_ctrls.rdQLenPdf::7                       0                       # What read queue length does an incoming req see
system.mem_ctrls.rdQLenPdf::8                       0                       # What read queue length does an incoming req see
system.mem_ctrls.rdQLenPdf::9                       0                       # What read queue length does an incoming req see
system.mem_ctrls.rdQLenPdf::10                      0                       # What read queue length does an incoming req see
system.mem_ctrls.rdQLenPdf::11                      0                       # What read queue length does an incoming req see
system.mem_ctrls.rdQLenPdf::12                      0                       # What read queue length does an incoming req see
system.mem_ctrls.rdQLenPdf::13                      0                       # What read queue length does an incoming req see
system.mem_ctrls.rdQLenPdf::14                      0                       # What read queue length does an incoming req see
system.mem_ctrls.rdQLenPdf::15                      0                       # What read queue length does an incoming req see
system.mem_ctrls.rdQLenPdf::16                      0                       # What read queue length does an incoming req see
system.mem_ctrls.rdQLenPdf::17                      0                       # What read queue length does an incoming req see
system.mem_ctrls.rdQLenPdf::18                      0                       # What read queue length does an incoming req see
system.mem_ctrls.rdQLenPdf::19                      0                       # What read queue length does an incoming req see
system.mem_ctrls.rdQLenPdf::20                      0                       # What read queue length does an incoming req see
system.mem_ctrls.rdQLenPdf::21                      0                       # What read queue length does an incoming req see
system.mem_ctrls.rdQLenPdf::22                      0                       # What read queue length does an incoming req see
system.mem_ctrls.rdQLenPdf::23                      0                       # What read queue length does an incoming req see
system.mem_ctrls.rdQLenPdf::24                      0                       # What read queue length does an incoming req see
system.mem_ctrls.rdQLenPdf::25                      0                       # What read queue length does an incoming req see
system.mem_ctrls.rdQLenPdf::26                      0                       # What read queue length does an incoming req see
system.mem_ctrls.rdQLenPdf::27                      0                       # What read queue length does an incoming req see
system.mem_ctrls.rdQLenPdf::28                      0                       # What read queue length does an incoming req see
system.mem_ctrls.rdQLenPdf::29                      0                       # What read queue length does an incoming req see
system.mem_ctrls.rdQLenPdf::30                      0                       # What read queue length does an incoming req see
system.mem_ctrls.rdQLenPdf::31                      0                       # What read queue length does an incoming req see
system.mem_ctrls.wrQLenPdf::0                       0                       # What write queue length does an incoming req see
system.mem_ctrls.wrQLenPdf::1                       0                       # What write queue length does an incoming req see
system.mem_ctrls.wrQLenPdf::2                       0                       # What write queue length does an incoming req see
system.mem_ctrls.wrQLenPdf::3                       0                       # What write queue length does an incoming req see
system.mem_ctrls.wrQLenPdf::4                       0                       # What write queue length does an incoming req see
system.mem_ctrls.wrQLenPdf::5                       0                       # What write queue length does an incoming req see
system.mem_ctrls.wrQLenPdf::6                       0                       # What write queue length does an incoming req see
system.mem_ctrls.wrQLenPdf::7                       0                       # What write queue length does an incoming req see
system.mem_ctrls.wrQLenPdf::8                       0                       # What write queue length does an incoming req see
system.mem_ctrls.wrQLenPdf::9                       0                       # What write queue length does an incoming req see
system.mem_ctrls.wrQLenPdf::10                      0                       # What write queue length does an incoming req see
system.mem_ctrls.wrQLenPdf::11                      0                       # What write queue length does an incoming req see
system.mem_ctrls.wrQLenPdf::12                      0                       # What write queue length does an incoming req see
system.mem_ctrls.wrQLenPdf::13                      0                       # What write queue length does an incoming req see
system.mem_ctrls.wrQLenPdf::14                      0                       # What write queue length does an incoming req see
system.mem_ctrls.wrQLenPdf::15                    518                       # What write queue length does an incoming req see
system.mem_ctrls.wrQLenPdf::16                    537                       # What write queue length does an incoming req see
system.mem_ctrls.wrQLenPdf::17                    853                       # What write queue length does an incoming req see
system.mem_ctrls.wrQLenPdf::18                    883                       # What write queue length does an incoming req see
system.mem_ctrls.wrQLenPdf::19                    885                       # What write queue length does an incoming req see
system.mem_ctrls.wrQLenPdf::20                    885                       # What write queue length does an incoming req see
system.mem_ctrls.wrQLenPdf::21                    883                       # What write queue length does an incoming req see
system.mem_ctrls.wrQLenPdf::22                    885                       # What write queue length does an incoming req see
system.mem_ctrls.wrQLenPdf::23                    886                       # What write queue length does an incoming req see
system.mem_ctrls.wrQLenPdf::24                    885                       # What write queue length does an incoming req see
system.mem_ctrls.wrQLenPdf::25                    886                       # What write queue length does an incoming req see
system.mem_ctrls.wrQLenPdf::26                    888                       # What write queue length does an incoming req see
system.mem_ctrls.wrQLenPdf::27                    885                       # What write queue length does an incoming req see
system.mem_ctrls.wrQLenPdf::28                    885                       # What write queue length does an incoming req see
system.mem_ctrls.wrQLenPdf::29                    887                       # What write queue length does an incoming req see
system.mem_ctrls.wrQLenPdf::30                    921                       # What write queue length does an incoming req see
system.mem_ctrls.wrQLenPdf::31                    884                       # What write queue length does an incoming req see
system.mem_ctrls.wrQLenPdf::32                    884                       # What write queue length does an incoming req see
system.mem_ctrls.wrQLenPdf::33                      1                       # What write queue length does an incoming req see
system.mem_ctrls.wrQLenPdf::34                      0                       # What write queue length does an incoming req see
system.mem_ctrls.wrQLenPdf::35                      0                       # What write queue length does an incoming req see
system.mem_ctrls.wrQLenPdf::36                      0                       # What write queue length does an incoming req see
system.mem_ctrls.wrQLenPdf::37                      0                       # What write queue length does an incoming req see
system.mem_ctrls.wrQLenPdf::38                      0                       # What write queue length does an incoming req see
system.mem_ctrls.wrQLenPdf::39                      0                       # What write queue length does an incoming req see
system.mem_ctrls.wrQLenPdf::40                      0                       # What write queue length does an incoming req see
system.mem_ctrls.wrQLenPdf::41                      0                       # What write queue length does an incoming req see
system.mem_ctrls.wrQLenPdf::42                      0                       # What write queue length does an incoming req see
system.mem_ctrls.wrQLenPdf::43                      0                       # What write queue length does an incoming req see
system.mem_ctrls.wrQLenPdf::44                      0                       # What write queue length does an incoming req see
system.mem_ctrls.wrQLenPdf::45                      0                       # What write queue length does an incoming req see
system.mem_ctrls.wrQLenPdf::46                      0                       # What write queue length does an incoming req see
system.mem_ctrls.wrQLenPdf::47                      0                       # What write queue length does an incoming req see
system.mem_ctrls.wrQLenPdf::48                      0                       # What write queue length does an incoming req see
system.mem_ctrls.wrQLenPdf::49                      0                       # What write queue length does an incoming req see
system.mem_ctrls.wrQLenPdf::50                      0                       # What write queue length does an incoming req see
system.mem_ctrls.wrQLenPdf::51                      0                       # What write queue length does an incoming req see
system.mem_ctrls.wrQLenPdf::52                      0                       # What write queue length does an incoming req see
system.mem_ctrls.wrQLenPdf::53                      0                       # What write queue length does an incoming req see
system.mem_ctrls.wrQLenPdf::54                      0                       # What write queue length does an incoming req see
system.mem_ctrls.wrQLenPdf::55                      0                       # What write queue length does an incoming req see
system.mem_ctrls.wrQLenPdf::56                      0                       # What write queue length does an incoming req see
system.mem_ctrls.wrQLenPdf::57                      0                       # What write queue length does an incoming req see
system.mem_ctrls.wrQLenPdf::58                      0                       # What write queue length does an incoming req see
system.mem_ctrls.wrQLenPdf::59                      0                       # What write queue length does an incoming req see
system.mem_ctrls.wrQLenPdf::60                      0                       # What write queue length does an incoming req see
system.mem_ctrls.wrQLenPdf::61                      0                       # What write queue length does an incoming req see
system.mem_ctrls.wrQLenPdf::62                      0                       # What write queue length does an incoming req see
system.mem_ctrls.wrQLenPdf::63                      0                       # What write queue length does an incoming req see
system.mem_ctrls.bytesPerActivate::samples        23023                       # Bytes accessed per row activation
system.mem_ctrls.bytesPerActivate::mean     89.432654                       # Bytes accessed per row activation
system.mem_ctrls.bytesPerActivate::gmean    80.507618                       # Bytes accessed per row activation
system.mem_ctrls.bytesPerActivate::stdev    52.414409                       # Bytes accessed per row activation
system.mem_ctrls.bytesPerActivate::64-127        16927     73.52%     73.52% # Bytes accessed per row activation
system.mem_ctrls.bytesPerActivate::128-191         4254     18.48%     92.00% # Bytes accessed per row activation
system.mem_ctrls.bytesPerActivate::192-255         1076      4.67%     96.67% # Bytes accessed per row activation
system.mem_ctrls.bytesPerActivate::256-319          481      2.09%     98.76% # Bytes accessed per row activation
system.mem_ctrls.bytesPerActivate::320-383          188      0.82%     99.58% # Bytes accessed per row activation
system.mem_ctrls.bytesPerActivate::384-447           55      0.24%     99.82% # Bytes accessed per row activation
system.mem_ctrls.bytesPerActivate::448-511           28      0.12%     99.94% # Bytes accessed per row activation
system.mem_ctrls.bytesPerActivate::512-575           10      0.04%     99.98% # Bytes accessed per row activation
system.mem_ctrls.bytesPerActivate::576-639            2      0.01%     99.99% # Bytes accessed per row activation
system.mem_ctrls.bytesPerActivate::640-703            1      0.00%    100.00% # Bytes accessed per row activation
system.mem_ctrls.bytesPerActivate::704-767            1      0.00%    100.00% # Bytes accessed per row activation
system.mem_ctrls.bytesPerActivate::total        23023                       # Bytes accessed per row activation
system.mem_ctrls.rdPerTurnAround::samples          883                       # Reads before turning the bus around for writes
system.mem_ctrls.rdPerTurnAround::mean      19.192525                       # Reads before turning the bus around for writes
system.mem_ctrls.rdPerTurnAround::gmean     19.101391                       # Reads before turning the bus around for writes
system.mem_ctrls.rdPerTurnAround::stdev      1.886000                       # Reads before turning the bus around for writes
system.mem_ctrls.rdPerTurnAround::14                1      0.11%      0.11% # Reads before turning the bus around for writes
system.mem_ctrls.rdPerTurnAround::15                4      0.45%      0.57% # Reads before turning the bus around for writes
system.mem_ctrls.rdPerTurnAround::16               58      6.57%      7.13% # Reads before turning the bus around for writes
system.mem_ctrls.rdPerTurnAround::17              100     11.33%     18.46% # Reads before turning the bus around for writes
system.mem_ctrls.rdPerTurnAround::18              152     17.21%     35.67% # Reads before turning the bus around for writes
system.mem_ctrls.rdPerTurnAround::19              217     24.58%     60.25% # Reads before turning the bus around for writes
system.mem_ctrls.rdPerTurnAround::20              156     17.67%     77.92% # Reads before turning the bus around for writes
system.mem_ctrls.rdPerTurnAround::21               94     10.65%     88.56% # Reads before turning the bus around for writes
system.mem_ctrls.rdPerTurnAround::22               57      6.46%     95.02% # Reads before turning the bus around for writes
system.mem_ctrls.rdPerTurnAround::23               27      3.06%     98.07% # Reads before turning the bus around for writes
system.mem_ctrls.rdPerTurnAround::24               11      1.25%     99.32% # Reads before turning the bus around for writes
system.mem_ctrls.rdPerTurnAround::25                3      0.34%     99.66% # Reads before turning the bus around for writes
system.mem_ctrls.rdPerTurnAround::26                3      0.34%    100.00% # Reads before turning the bus around for writes
system.mem_ctrls.rdPerTurnAround::total           883                       # Reads before turning the bus around for writes
system.mem_ctrls.wrPerTurnAround::samples          883                       # Writes before turning the bus around for reads
system.mem_ctrls.wrPerTurnAround::mean      17.237826                       # Writes before turning the bus around for reads
system.mem_ctrls.wrPerTurnAround::gmean     17.207502                       # Writes before turning the bus around for reads
system.mem_ctrls.wrPerTurnAround::stdev      1.016896                       # Writes before turning the bus around for reads
system.mem_ctrls.wrPerTurnAround::16              343     38.84%     38.84% # Writes before turning the bus around for reads
system.mem_ctrls.wrPerTurnAround::17               19      2.15%     41.00% # Writes before turning the bus around for reads
system.mem_ctrls.wrPerTurnAround::18              490     55.49%     96.49% # Writes before turning the bus around for reads
system.mem_ctrls.wrPerTurnAround::19               30      3.40%     99.89% # Writes before turning the bus around for reads
system.mem_ctrls.wrPerTurnAround::20                1      0.11%    100.00% # Writes before turning the bus around for reads
system.mem_ctrls.wrPerTurnAround::total           883                       # Writes before turning the bus around for reads
system.mem_ctrls.totQLat                    484832500                       # Total ticks spent queuing
system.mem_ctrls.totMemAccLat               802607500                       # Total ticks spent from burst creation until serviced by the DRAM
system.mem_ctrls.totBusLat                   84740000                       # Total ticks spent in databus transfers
system.mem_ctrls.avgQLat                     28607.06                       # Average queueing delay per DRAM burst
system.mem_ctrls.avgBusLat                    5000.00                       # Average bus latency per DRAM burst
system.mem_ctrls.avgMemAccLat                47357.06                       # Average memory access latency per DRAM burst
system.mem_ctrls.avgRdBW                        71.05                       # Average DRAM read bandwidth in MiByte/s
system.mem_ctrls.avgWrBW                        63.81                       # Average achieved write bandwidth in MiByte/s
system.mem_ctrls.avgRdBWSys                     71.05                       # Average system read bandwidth in MiByte/s
system.mem_ctrls.avgWrBWSys                     63.81                       # Average system write bandwidth in MiByte/s
system.mem_ctrls.peakBW                      12800.00                       # Theoretical peak bandwidth in MiByte/s
system.mem_ctrls.busUtil                         1.05                       # Data bus utilization in percentage
system.mem_ctrls.busUtilRead                     0.56                       # Data bus utilization in percentage for reads
system.mem_ctrls.busUtilWrite                    0.50                       # Data bus utilization in percentage for writes
system.mem_ctrls.avgRdQLen                       1.10                       # Average read queue length when enqueuing
system.mem_ctrls.avgWrQLen                      24.97                       # Average write queue length when enqueuing
system.mem_ctrls.readRowHits                     5816                       # Number of row buffer hits during reads
system.mem_ctrls.writeRowHits                    3332                       # Number of row buffer hits during writes
system.mem_ctrls.readRowHitRate                 34.32                       # Row buffer hit rate for reads
system.mem_ctrls.writeRowHitRate                21.89                       # Row buffer hit rate for writes
system.mem_ctrls.avgGap                     474511.33                       # Average gap between requests
system.mem_ctrls.pageHitRate                    28.44                       # Row buffer hit rate, read and write combined
system.mem_ctrls_0.actEnergy                 83687940                       # Energy for activate commands per rank (pJ)
system.mem_ctrls_0.preEnergy                 44481195                       # Energy for precharge commands per rank (pJ)
system.mem_ctrls_0.readEnergy                60932760                       # Energy for read commands per rank (pJ)
system.mem_ctrls_0.writeEnergy               40136580                       # Energy for write commands per rank (pJ)
system.mem_ctrls_0.refreshEnergy         1216372560.000000                       # Energy for refresh commands per rank (pJ)
system.mem_ctrls_0.actBackEnergy           1013812830                       # Energy for active background per rank (pJ)
system.mem_ctrls_0.preBackEnergy             30110400                       # Energy for precharge background per rank (pJ)
system.mem_ctrls_0.actPowerDownEnergy      4491919200                       # Energy for active power-down per rank (pJ)
system.mem_ctrls_0.prePowerDownEnergy      1158698880                       # Energy for precharge power-down per rank (pJ)
system.mem_ctrls_0.selfRefreshEnergy         41626920                       # Energy for self refresh per rank (pJ)
system.mem_ctrls_0.totalEnergy             8181979635                       # Total energy per rank (pJ)
system.mem_ctrls_0.averagePower            535.913750                       # Core power per rank (mW)
system.mem_ctrls_0.totalIdleTime          12962291375                       # Total Idle time Per DRAM Rank
system.mem_ctrls_0.memoryStateTime::IDLE     20009750                       # Time in different power states
system.mem_ctrls_0.memoryStateTime::REF     514762000                       # Time in different power states
system.mem_ctrls_0.memoryStateTime::SREF     97069000                       # Time in different power states
system.mem_ctrls_0.memoryStateTime::PRE_PDN   3017194750                       # Time in different power states
system.mem_ctrls_0.memoryStateTime::ACT    1767959000                       # Time in different power states
system.mem_ctrls_0.memoryStateTime::ACT_PDN   9850349625                       # Time in different power states
system.mem_ctrls_1.actEnergy                 80682000                       # Energy for activate commands per rank (pJ)
system.mem_ctrls_1.preEnergy                 42891090                       # Energy for precharge commands per rank (pJ)
system.mem_ctrls_1.readEnergy                60075960                       # Energy for read commands per rank (pJ)
system.mem_ctrls_1.writeEnergy               39317040                       # Energy for write commands per rank (pJ)
system.mem_ctrls_1.refreshEnergy         1229894640.000000                       # Energy for refresh commands per rank (pJ)
system.mem_ctrls_1.actBackEnergy            989920140                       # Energy for active background per rank (pJ)
system.mem_ctrls_1.preBackEnergy             33621120                       # Energy for precharge background per rank (pJ)
system.mem_ctrls_1.actPowerDownEnergy      4431646260                       # Energy for active power-down per rank (pJ)
system.mem_ctrls_1.prePowerDownEnergy      1197601440                       # Energy for precharge power-down per rank (pJ)
system.mem_ctrls_1.selfRefreshEnergy         77640240                       # Energy for self refresh per rank (pJ)
system.mem_ctrls_1.totalEnergy             8183289930                       # Total energy per rank (pJ)
system.mem_ctrls_1.averagePower            535.999573                       # Core power per rank (mW)
system.mem_ctrls_1.totalIdleTime          13008472875                       # Total Idle time Per DRAM Rank
system.mem_ctrls_1.memoryStateTime::IDLE     28542000                       # Time in different power states
system.mem_ctrls_1.memoryStateTime::REF     520686000                       # Time in different power states
system.mem_ctrls_1.memoryStateTime::SREF    171635250                       # Time in different power states
system.mem_ctrls_1.memoryStateTime::PRE_PDN   3118632500                       # Time in different power states
system.mem_ctrls_1.memoryStateTime::ACT    1709322250                       # Time in different power states
system.mem_ctrls_1.memoryStateTime::ACT_PDN   9718526125                       # Time in different power states
system.pwrStateResidencyTicks::UNDEFINED  15267344125                       # Cumulative time (in ticks) in various power states
system.cpu0.branchPred.lookups               13317979                       # Number of BP lookups
system.cpu0.branchPred.condPredicted         13317979                       # Number of conditional branches predicted
system.cpu0.branchPred.condIncorrect          1418959                       # Number of conditional branches incorrect
system.cpu0.branchPred.BTBLookups            11263361                       # Number of BTB lookups
system.cpu0.branchPred.BTBHits                      0                       # Number of BTB hits
system.cpu0.branchPred.BTBCorrect                   0                       # Number of correct BTB predictions (this stat may not work properly.
system.cpu0.branchPred.BTBHitPct             0.000000                       # BTB Hit Percentage
system.cpu0.branchPred.usedRAS                1067284                       # Number of times the RAS was used to get a target.
system.cpu0.branchPred.RASInCorrect            193394                       # Number of incorrect RAS predictions.
system.cpu0.branchPred.indirectLookups       11263361                       # Number of indirect predictor lookups.
system.cpu0.branchPred.indirectHits           2632743                       # Number of indirect target hits.
system.cpu0.branchPred.indirectMisses         8630618                       # Number of indirect misses.
system.cpu0.branchPredindirectMispredicted       941015                       # Number of mispredicted indirect branches.
system.cpu_voltage_domain.voltage                   1                       # Voltage in Volts
system.cpu_clk_domain.clock                       500                       # Clock period in ticks
system.cpu0.dtb.walker.pwrStateResidencyTicks::UNDEFINED  15267344125                       # Cumulative time (in ticks) in various power states
system.cpu0.dtb.rdAccesses                    6959649                       # TLB accesses on read requests
system.cpu0.dtb.wrAccesses                    2304032                       # TLB accesses on write requests
system.cpu0.dtb.rdMisses                        88210                       # TLB misses on read requests
system.cpu0.dtb.wrMisses                        18882                       # TLB misses on write requests
system.cpu0.apic_clk_domain.clock                8000                       # Clock period in ticks
system.cpu0.interrupts.pwrStateResidencyTicks::UNDEFINED  15267344125                       # Cumulative time (in ticks) in various power states
system.cpu0.itb.walker.pwrStateResidencyTicks::UNDEFINED  15267344125                       # Cumulative time (in ticks) in various power states
system.cpu0.itb.rdAccesses                          0                       # TLB accesses on read requests
system.cpu0.itb.wrAccesses                    6592024                       # TLB accesses on write requests
system.cpu0.itb.rdMisses                            0                       # TLB misses on read requests
system.cpu0.itb.wrMisses                         3055                       # TLB misses on write requests
system.cpu0.workload.numSyscalls                   19                       # Number of system calls
system.cpu0.pwrStateResidencyTicks::ON    15267344125                       # Cumulative time (in ticks) in various power states
system.cpu0.numCycles                        30534689                       # number of cpu cycles simulated
system.cpu0.numWorkItemsStarted                     0                       # number of work items this cpu started
system.cpu0.numWorkItemsCompleted                   0                       # number of work items this cpu completed
system.cpu0.fetch.icacheStallCycles           7450320                       # Number of cycles fetch is stalled on an Icache miss
system.cpu0.fetch.Insts                      56821119                       # Number of instructions fetch has processed
system.cpu0.fetch.Branches                   13317979                       # Number of branches that fetch encountered
system.cpu0.fetch.predictedBranches           3700027                       # Number of branches that fetch has predicted taken
system.cpu0.fetch.Cycles                     21644857                       # Number of cycles fetch has run and was not squashing or blocked
system.cpu0.fetch.SquashCycles                2840408                       # Number of cycles fetch has spent squashing
system.cpu0.fetch.TlbCycles                         7                       # Number of cycles fetch has spent waiting for tlb
system.cpu0.fetch.MiscStallCycles                1077                       # Number of cycles fetch has spent waiting on interrupts, or bad addresses, or out of MSHRs
system.cpu0.fetch.PendingTrapStallCycles        17516                       # Number of stall cycles due to pending traps
system.cpu0.fetch.CacheLines                  6588969                       # Number of cache lines fetched
system.cpu0.fetch.IcacheSquashes               328674                       # Number of outstanding Icache misses that were squashed
system.cpu0.fetch.rateDist::samples          30533981                       # Number of instructions fetched each cycle (Total)
system.cpu0.fetch.rateDist::mean             4.058479                       # Number of instructions fetched each cycle (Total)
system.cpu0.fetch.rateDist::stdev            3.670704                       # Number of instructions fetched each cycle (Total)
system.cpu0.fetch.rateDist::underflows              0      0.00%      0.00% # Number of instructions fetched each cycle (Total)
system.cpu0.fetch.rateDist::0                12034356     39.41%     39.41% # Number of instructions fetched each cycle (Total)
system.cpu0.fetch.rateDist::1                  526242      1.72%     41.14% # Number of instructions fetched each cycle (Total)
system.cpu0.fetch.rateDist::2                  874216      2.86%     44.00% # Number of instructions fetched each cycle (Total)
system.cpu0.fetch.rateDist::3                 1346856      4.41%     48.41% # Number of instructions fetched each cycle (Total)
system.cpu0.fetch.rateDist::4                  605762      1.98%     50.39% # Number of instructions fetched each cycle (Total)
system.cpu0.fetch.rateDist::5                 1160460      3.80%     54.20% # Number of instructions fetched each cycle (Total)
system.cpu0.fetch.rateDist::6                 1004157      3.29%     57.48% # Number of instructions fetched each cycle (Total)
system.cpu0.fetch.rateDist::7                  499468      1.64%     59.12% # Number of instructions fetched each cycle (Total)
system.cpu0.fetch.rateDist::8                12482464     40.88%    100.00% # Number of instructions fetched each cycle (Total)
system.cpu0.fetch.rateDist::overflows               0      0.00%    100.00% # Number of instructions fetched each cycle (Total)
system.cpu0.fetch.rateDist::min_value               0                       # Number of instructions fetched each cycle (Total)
system.cpu0.fetch.rateDist::max_value               8                       # Number of instructions fetched each cycle (Total)
system.cpu0.fetch.rateDist::total            30533981                       # Number of instructions fetched each cycle (Total)
system.cpu0.fetch.branchRate                 0.436159                       # Number of branch fetches per cycle
system.cpu0.fetch.rate                       1.860871                       # Number of inst fetches per cycle
system.cpu0.decode.IdleCycles                 5629681                       # Number of cycles decode is idle
system.cpu0.decode.BlockedCycles              8208623                       # Number of cycles decode is blocked
system.cpu0.decode.RunCycles                 13862552                       # Number of cycles decode is running
system.cpu0.decode.UnblockCycles              1412921                       # Number of cycles decode is unblocking
system.cpu0.decode.SquashCycles               1420204                       # Number of cycles decode is squashing
system.cpu0.decode.DecodedInsts             110928422                       # Number of instructions handled by decode
system.cpu0.rename.SquashCycles               1420204                       # Number of cycles rename is squashing
system.cpu0.rename.IdleCycles                 6707348                       # Number of cycles rename is idle
system.cpu0.rename.BlockCycles                6936817                       # Number of cycles rename is blocking
system.cpu0.rename.serializeStallCycles        242386                       # count of cycles rename stalled for serializing inst
system.cpu0.rename.RunCycles                 13977702                       # Number of cycles rename is running
system.cpu0.rename.UnblockCycles              1249524                       # Number of cycles rename is unblocking
system.cpu0.rename.RenamedInsts             103554311                       # Number of instructions processed by rename
system.cpu0.rename.ROBFullEvents                30764                       # Number of times rename has blocked due to ROB full
system.cpu0.rename.IQFullEvents                626331                       # Number of times rename has blocked due to IQ full
system.cpu0.rename.LQFullEvents                  1465                       # Number of times rename has blocked due to LQ full
system.cpu0.rename.SQFullEvents                397062                       # Number of times rename has blocked due to SQ full
system.cpu0.rename.RenamedOperands          116368775                       # Number of destination operands rename has renamed
system.cpu0.rename.RenameLookups            256055843                       # Number of register rename lookups that rename has made
system.cpu0.rename.int_rename_lookups       140187940                       # Number of integer rename lookups
system.cpu0.rename.fp_rename_lookups         20154914                       # Number of floating rename lookups
system.cpu0.rename.CommittedMaps             47170901                       # Number of HB maps that are committed
system.cpu0.rename.UndoneMaps                69197861                       # Number of HB maps that are undone due to squashing
system.cpu0.rename.serializingInsts             32114                       # count of serializing insts renamed
system.cpu0.rename.tempSerializingInsts         34433                       # count of temporary serializing insts renamed
system.cpu0.rename.skidInsts                  3022794                       # count of insts added to the skid buffer
system.cpu0.memDep0.insertedLoads             9534498                       # Number of loads inserted to the mem dependence unit.
system.cpu0.memDep0.insertedStores            3230156                       # Number of stores inserted to the mem dependence unit.
system.cpu0.memDep0.conflictingLoads           156064                       # Number of conflicting loads.
system.cpu0.memDep0.conflictingStores          161849                       # Number of conflicting stores.
system.cpu0.iq.iqInstsAdded                  89443441                       # Number of instructions added to the IQ (excludes non-spec)
system.cpu0.iq.iqNonSpecInstsAdded             213023                       # Number of non-speculative instructions added to the IQ
system.cpu0.iq.iqInstsIssued                 70749871                       # Number of instructions issued
system.cpu0.iq.iqSquashedInstsIssued           682651                       # Number of squashed instructions issued
system.cpu0.iq.iqSquashedInstsExamined       48985576                       # Number of squashed instructions iterated over during squash; mainly for profiling
system.cpu0.iq.iqSquashedOperandsExamined     70666140                       # Number of squashed operands that are examined and possibly removed from graph
system.cpu0.iq.iqSquashedNonSpecRemoved        212914                       # Number of squashed non-spec instructions that were removed
system.cpu0.iq.issued_per_cycle::samples     30533981                       # Number of insts issued each cycle
system.cpu0.iq.issued_per_cycle::mean        2.317086                       # Number of insts issued each cycle
system.cpu0.iq.issued_per_cycle::stdev       2.601603                       # Number of insts issued each cycle
system.cpu0.iq.issued_per_cycle::underflows            0      0.00%      0.00% # Number of insts issued each cycle
system.cpu0.iq.issued_per_cycle::0           13485082     44.16%     44.16% # Number of insts issued each cycle
system.cpu0.iq.issued_per_cycle::1            2183096      7.15%     51.31% # Number of insts issued each cycle
system.cpu0.iq.issued_per_cycle::2            2668145      8.74%     60.05% # Number of insts issued each cycle
system.cpu0.iq.issued_per_cycle::3            2284878      7.48%     67.54% # Number of insts issued each cycle
system.cpu0.iq.issued_per_cycle::4            2330088      7.63%     75.17% # Number of insts issued each cycle
system.cpu0.iq.issued_per_cycle::5            2237030      7.33%     82.49% # Number of insts issued each cycle
system.cpu0.iq.issued_per_cycle::6            2636457      8.63%     91.13% # Number of insts issued each cycle
system.cpu0.iq.issued_per_cycle::7            1622033      5.31%     96.44% # Number of insts issued each cycle
system.cpu0.iq.issued_per_cycle::8            1087172      3.56%    100.00% # Number of insts issued each cycle
system.cpu0.iq.issued_per_cycle::overflows            0      0.00%    100.00% # Number of insts issued each cycle
system.cpu0.iq.issued_per_cycle::min_value            0                       # Number of insts issued each cycle
system.cpu0.iq.issued_per_cycle::max_value            8                       # Number of insts issued each cycle
system.cpu0.iq.issued_per_cycle::total       30533981                       # Number of insts issued each cycle
system.cpu0.iq.fu_full::No_OpClass                  0      0.00%      0.00% # attempts to use FU when none available
system.cpu0.iq.fu_full::IntAlu                1421330     92.46%     92.46% # attempts to use FU when none available
system.cpu0.iq.fu_full::IntMult                     0      0.00%     92.46% # attempts to use FU when none available
system.cpu0.iq.fu_full::IntDiv                      0      0.00%     92.46% # attempts to use FU when none available
system.cpu0.iq.fu_full::FloatAdd                83498      5.43%     97.89% # attempts to use FU when none available
system.cpu0.iq.fu_full::FloatCmp                    0      0.00%     97.89% # attempts to use FU when none available
system.cpu0.iq.fu_full::FloatCvt                    0      0.00%     97.89% # attempts to use FU when none available
system.cpu0.iq.fu_full::FloatMult                   0      0.00%     97.89% # attempts to use FU when none available
system.cpu0.iq.fu_full::FloatMultAcc                0      0.00%     97.89% # attempts to use FU when none available
system.cpu0.iq.fu_full::FloatDiv                    0      0.00%     97.89% # attempts to use FU when none available
system.cpu0.iq.fu_full::FloatMisc                   0      0.00%     97.89% # attempts to use FU when none available
system.cpu0.iq.fu_full::FloatSqrt                   0      0.00%     97.89% # attempts to use FU when none available
system.cpu0.iq.fu_full::SimdAdd                     0      0.00%     97.89% # attempts to use FU when none available
system.cpu0.iq.fu_full::SimdAddAcc                  0      0.00%     97.89% # attempts to use FU when none available
system.cpu0.iq.fu_full::SimdAlu                     0      0.00%     97.89% # attempts to use FU when none available
system.cpu0.iq.fu_full::SimdCmp                     0      0.00%     97.89% # attempts to use FU when none available
system.cpu0.iq.fu_full::SimdCvt                     0      0.00%     97.89% # attempts to use FU when none available
system.cpu0.iq.fu_full::SimdMisc                    0      0.00%     97.89% # attempts to use FU when none available
system.cpu0.iq.fu_full::SimdMult                    0      0.00%     97.89% # attempts to use FU when none available
system.cpu0.iq.fu_full::SimdMultAcc                 0      0.00%     97.89% # attempts to use FU when none available
system.cpu0.iq.fu_full::SimdShift                   0      0.00%     97.89% # attempts to use FU when none available
system.cpu0.iq.fu_full::SimdShiftAcc                0      0.00%     97.89% # attempts to use FU when none available
system.cpu0.iq.fu_full::SimdSqrt                    0      0.00%     97.89% # attempts to use FU when none available
system.cpu0.iq.fu_full::SimdFloatAdd                0      0.00%     97.89% # attempts to use FU when none available
system.cpu0.iq.fu_full::SimdFloatAlu                0      0.00%     97.89% # attempts to use FU when none available
system.cpu0.iq.fu_full::SimdFloatCmp                0      0.00%     97.89% # attempts to use FU when none available
system.cpu0.iq.fu_full::SimdFloatCvt                0      0.00%     97.89% # attempts to use FU when none available
system.cpu0.iq.fu_full::SimdFloatDiv                0      0.00%     97.89% # attempts to use FU when none available
system.cpu0.iq.fu_full::SimdFloatMisc               0      0.00%     97.89% # attempts to use FU when none available
system.cpu0.iq.fu_full::SimdFloatMult               0      0.00%     97.89% # attempts to use FU when none available
system.cpu0.iq.fu_full::SimdFloatMultAcc            0      0.00%     97.89% # attempts to use FU when none available
system.cpu0.iq.fu_full::SimdFloatSqrt               0      0.00%     97.89% # attempts to use FU when none available
system.cpu0.iq.fu_full::MemRead                  4688      0.30%     98.20% # attempts to use FU when none available
system.cpu0.iq.fu_full::MemWrite                 2420      0.16%     98.36% # attempts to use FU when none available
system.cpu0.iq.fu_full::FloatMemRead            25042      1.63%     99.99% # attempts to use FU when none available
system.cpu0.iq.fu_full::FloatMemWrite             224      0.01%    100.00% # attempts to use FU when none available
system.cpu0.iq.fu_full::IprAccess                   0      0.00%    100.00% # attempts to use FU when none available
system.cpu0.iq.fu_full::InstPrefetch                0      0.00%    100.00% # attempts to use FU when none available
system.cpu0.iq.FU_type_0::No_OpClass          1912721      2.70%      2.70% # Type of FU issued
system.cpu0.iq.FU_type_0::IntAlu             53530568     75.66%     78.37% # Type of FU issued
system.cpu0.iq.FU_type_0::IntMult                2870      0.00%     78.37% # Type of FU issued
system.cpu0.iq.FU_type_0::IntDiv                72734      0.10%     78.47% # Type of FU issued
system.cpu0.iq.FU_type_0::FloatAdd            5109225      7.22%     85.69% # Type of FU issued
system.cpu0.iq.FU_type_0::FloatCmp                  0      0.00%     85.69% # Type of FU issued
system.cpu0.iq.FU_type_0::FloatCvt                  0      0.00%     85.69% # Type of FU issued
system.cpu0.iq.FU_type_0::FloatMult                 0      0.00%     85.69% # Type of FU issued
system.cpu0.iq.FU_type_0::FloatMultAcc              0      0.00%     85.69% # Type of FU issued
system.cpu0.iq.FU_type_0::FloatDiv                  0      0.00%     85.69% # Type of FU issued
system.cpu0.iq.FU_type_0::FloatMisc                 0      0.00%     85.69% # Type of FU issued
system.cpu0.iq.FU_type_0::FloatSqrt                 0      0.00%     85.69% # Type of FU issued
system.cpu0.iq.FU_type_0::SimdAdd                   0      0.00%     85.69% # Type of FU issued
system.cpu0.iq.FU_type_0::SimdAddAcc                0      0.00%     85.69% # Type of FU issued
system.cpu0.iq.FU_type_0::SimdAlu                   0      0.00%     85.69% # Type of FU issued
system.cpu0.iq.FU_type_0::SimdCmp                   0      0.00%     85.69% # Type of FU issued
system.cpu0.iq.FU_type_0::SimdCvt                   0      0.00%     85.69% # Type of FU issued
system.cpu0.iq.FU_type_0::SimdMisc                  0      0.00%     85.69% # Type of FU issued
system.cpu0.iq.FU_type_0::SimdMult                  0      0.00%     85.69% # Type of FU issued
system.cpu0.iq.FU_type_0::SimdMultAcc               0      0.00%     85.69% # Type of FU issued
system.cpu0.iq.FU_type_0::SimdShift                 0      0.00%     85.69% # Type of FU issued
system.cpu0.iq.FU_type_0::SimdShiftAcc              0      0.00%     85.69% # Type of FU issued
system.cpu0.iq.FU_type_0::SimdSqrt                  0      0.00%     85.69% # Type of FU issued
system.cpu0.iq.FU_type_0::SimdFloatAdd              0      0.00%     85.69% # Type of FU issued
system.cpu0.iq.FU_type_0::SimdFloatAlu              0      0.00%     85.69% # Type of FU issued
system.cpu0.iq.FU_type_0::SimdFloatCmp              0      0.00%     85.69% # Type of FU issued
system.cpu0.iq.FU_type_0::SimdFloatCvt              0      0.00%     85.69% # Type of FU issued
system.cpu0.iq.FU_type_0::SimdFloatDiv              0      0.00%     85.69% # Type of FU issued
system.cpu0.iq.FU_type_0::SimdFloatMisc             0      0.00%     85.69% # Type of FU issued
system.cpu0.iq.FU_type_0::SimdFloatMult             0      0.00%     85.69% # Type of FU issued
system.cpu0.iq.FU_type_0::SimdFloatMultAcc            0      0.00%     85.69% # Type of FU issued
system.cpu0.iq.FU_type_0::SimdFloatSqrt             0      0.00%     85.69% # Type of FU issued
system.cpu0.iq.FU_type_0::MemRead             5093978      7.20%     92.89% # Type of FU issued
system.cpu0.iq.FU_type_0::MemWrite            2511487      3.55%     96.44% # Type of FU issued
system.cpu0.iq.FU_type_0::FloatMemRead        2515577      3.56%    100.00% # Type of FU issued
system.cpu0.iq.FU_type_0::FloatMemWrite           711      0.00%    100.00% # Type of FU issued
system.cpu0.iq.FU_type_0::IprAccess                 0      0.00%    100.00% # Type of FU issued
system.cpu0.iq.FU_type_0::InstPrefetch              0      0.00%    100.00% # Type of FU issued
system.cpu0.iq.FU_type_0::total              70749871                       # Type of FU issued
system.cpu0.iq.rate                          2.317033                       # Inst issue rate
system.cpu0.iq.fu_busy_cnt                    1537202                       # FU busy when requested
system.cpu0.iq.fu_busy_rate                  0.021727                       # FU busy rate (busy events/executed inst)
system.cpu0.iq.int_inst_queue_reads         158572628                       # Number of integer instruction queue reads
system.cpu0.iq.int_inst_queue_writes        119790602                       # Number of integer instruction queue writes
system.cpu0.iq.int_inst_queue_wakeup_accesses     59429640                       # Number of integer instruction queue wakeup accesses
system.cpu0.iq.fp_inst_queue_reads           15680946                       # Number of floating instruction queue reads
system.cpu0.iq.fp_inst_queue_writes          18851679                       # Number of floating instruction queue writes
system.cpu0.iq.fp_inst_queue_wakeup_accesses      6910981                       # Number of floating instruction queue wakeup accesses
system.cpu0.iq.vec_inst_queue_reads                 0                       # Number of vector instruction queue reads
system.cpu0.iq.vec_inst_queue_writes                0                       # Number of vector instruction queue writes
system.cpu0.iq.vec_inst_queue_wakeup_accesses            0                       # Number of vector instruction queue wakeup accesses
system.cpu0.iq.int_alu_accesses              62528623                       # Number of integer alu accesses
system.cpu0.iq.fp_alu_accesses                7845729                       # Number of floating point alu accesses
system.cpu0.iq.vec_alu_accesses                     0                       # Number of vector alu accesses
system.cpu0.iew.lsq.thread0.forwLoads          199645                       # Number of loads that had data forwarded from stores
system.cpu0.iew.lsq.thread0.invAddrLoads            0                       # Number of loads ignored due to an invalid address
system.cpu0.iew.lsq.thread0.squashedLoads      5917930                       # Number of loads squashed
system.cpu0.iew.lsq.thread0.ignoredResponses         3555                       # Number of memory responses ignored because the instruction is squashed
system.cpu0.iew.lsq.thread0.memOrderViolation          275                       # Number of memory ordering violations
system.cpu0.iew.lsq.thread0.squashedStores      1589383                       # Number of stores squashed
system.cpu0.iew.lsq.thread0.invAddrSwpfs            0                       # Number of software prefetches ignored due to an invalid address
system.cpu0.iew.lsq.thread0.blockedLoads            0                       # Number of blocked loads due to partial load-store forwarding
system.cpu0.iew.lsq.thread0.rescheduledLoads         3268                       # Number of loads that were rescheduled
system.cpu0.iew.lsq.thread0.cacheBlocked           15                       # Number of times an access to memory failed due to the cache being blocked
system.cpu0.iew.iewIdleCycles                       0                       # Number of cycles IEW is idle
system.cpu0.iew.iewSquashCycles               1420204                       # Number of cycles IEW is squashing
system.cpu0.iew.iewBlockCycles                6258873                       # Number of cycles IEW is blocking
system.cpu0.iew.iewUnblockCycles                10001                       # Number of cycles IEW is unblocking
system.cpu0.iew.iewDispatchedInsts           89656464                       # Number of instructions dispatched to IQ
system.cpu0.iew.iewDispSquashedInsts            48443                       # Number of squashed instructions skipped by dispatch
system.cpu0.iew.iewDispLoadInsts              9534498                       # Number of dispatched load instructions
system.cpu0.iew.iewDispStoreInsts             3230156                       # Number of dispatched store instructions
system.cpu0.iew.iewDispNonSpecInsts             87928                       # Number of dispatched non-speculative instructions
system.cpu0.iew.iewIQFullEvents                  4660                       # Number of times the IQ has become full, causing a stall
system.cpu0.iew.iewLSQFullEvents                 3754                       # Number of times the LSQ has become full, causing a stall
system.cpu0.iew.memOrderViolationEvents           275                       # Number of memory order violations
system.cpu0.iew.predictedTakenIncorrect        428772                       # Number of branches that were predicted taken incorrectly
system.cpu0.iew.predictedNotTakenIncorrect      1354894                       # Number of branches that were predicted not taken incorrectly
system.cpu0.iew.branchMispredicts             1783666                       # Number of branch mispredicts detected at execute
system.cpu0.iew.iewExecutedInsts             67580908                       # Number of executed instructions
system.cpu0.iew.iewExecLoadInsts              6921695                       # Number of load instructions executed
system.cpu0.iew.iewExecSquashedInsts          3168961                       # Number of squashed instructions skipped in execute
system.cpu0.iew.exec_swp                            0                       # number of swp insts executed
system.cpu0.iew.exec_nop                            0                       # number of nop insts executed
system.cpu0.iew.exec_refs                     9225079                       # number of memory reference insts executed
system.cpu0.iew.exec_branches                 6181589                       # Number of branches executed
system.cpu0.iew.exec_stores                   2303384                       # Number of stores executed
system.cpu0.iew.exec_rate                    2.213250                       # Inst execution rate
system.cpu0.iew.wb_sent                      66922909                       # cumulative count of insts sent to commit
system.cpu0.iew.wb_count                     66340621                       # cumulative count of insts written-back
system.cpu0.iew.wb_producers                 48996528                       # num instructions producing a value
system.cpu0.iew.wb_consumers                 86694251                       # num instructions consuming a value
system.cpu0.iew.wb_rate                      2.172631                       # insts written-back per cycle
system.cpu0.iew.wb_fanout                    0.565165                       # average fanout of values written-back
system.cpu0.commit.commitSquashedInsts       48985837                       # The number of squashed insts skipped by commit
system.cpu0.commit.commitNonSpecStalls            109                       # The number of times commit has been forced to stall to communicate backwards
system.cpu0.commit.branchMispredicts          1420051                       # The number of times a branch was mispredicted
system.cpu0.commit.committed_per_cycle::samples     23086873                       # Number of insts commited each cycle
system.cpu0.commit.committed_per_cycle::mean     1.761645                       # Number of insts commited each cycle
system.cpu0.commit.committed_per_cycle::stdev     2.398123                       # Number of insts commited each cycle
system.cpu0.commit.committed_per_cycle::underflows            0      0.00%      0.00% # Number of insts commited each cycle
system.cpu0.commit.committed_per_cycle::0     10867581     47.07%     47.07% # Number of insts commited each cycle
system.cpu0.commit.committed_per_cycle::1      2981060     12.91%     59.98% # Number of insts commited each cycle
system.cpu0.commit.committed_per_cycle::2      3347408     14.50%     74.48% # Number of insts commited each cycle
system.cpu0.commit.committed_per_cycle::3      1824885      7.90%     82.39% # Number of insts commited each cycle
system.cpu0.commit.committed_per_cycle::4       954062      4.13%     86.52% # Number of insts commited each cycle
system.cpu0.commit.committed_per_cycle::5       733218      3.18%     89.70% # Number of insts commited each cycle
system.cpu0.commit.committed_per_cycle::6       332389      1.44%     91.14% # Number of insts commited each cycle
system.cpu0.commit.committed_per_cycle::7       326484      1.41%     92.55% # Number of insts commited each cycle
system.cpu0.commit.committed_per_cycle::8      1719786      7.45%    100.00% # Number of insts commited each cycle
system.cpu0.commit.committed_per_cycle::overflows            0      0.00%    100.00% # Number of insts commited each cycle
system.cpu0.commit.committed_per_cycle::min_value            0                       # Number of insts commited each cycle
system.cpu0.commit.committed_per_cycle::max_value            8                       # Number of insts commited each cycle
system.cpu0.commit.committed_per_cycle::total     23086873                       # Number of insts commited each cycle
system.cpu0.commit.committedInsts            18528904                       # Number of instructions committed
system.cpu0.commit.committedOps              40670879                       # Number of ops (including micro ops) committed
system.cpu0.commit.swp_count                        0                       # Number of s/w prefetches committed
system.cpu0.commit.refs                       5257342                       # Number of memory references committed
system.cpu0.commit.loads                      3616567                       # Number of loads committed
system.cpu0.commit.membars                         60                       # Number of memory barriers committed
system.cpu0.commit.branches                   4249737                       # Number of branches committed
system.cpu0.commit.vec_insts                        0                       # Number of committed Vector instructions.
system.cpu0.commit.fp_insts                   3061341                       # Number of committed floating point instructions.
system.cpu0.commit.int_insts                 38024965                       # Number of committed integer instructions.
system.cpu0.commit.function_calls              361491                       # Number of function calls committed.
system.cpu0.commit.op_class_0::No_OpClass       707806      1.74%      1.74% # Class of committed instruction
system.cpu0.commit.op_class_0::IntAlu        32343127     79.52%     81.26% # Class of committed instruction
system.cpu0.commit.op_class_0::IntMult           1564      0.00%     81.27% # Class of committed instruction
system.cpu0.commit.op_class_0::IntDiv           47096      0.12%     81.38% # Class of committed instruction
system.cpu0.commit.op_class_0::FloatAdd       2313944      5.69%     87.07% # Class of committed instruction
system.cpu0.commit.op_class_0::FloatCmp             0      0.00%     87.07% # Class of committed instruction
system.cpu0.commit.op_class_0::FloatCvt             0      0.00%     87.07% # Class of committed instruction
system.cpu0.commit.op_class_0::FloatMult            0      0.00%     87.07% # Class of committed instruction
system.cpu0.commit.op_class_0::FloatMultAcc            0      0.00%     87.07% # Class of committed instruction
system.cpu0.commit.op_class_0::FloatDiv             0      0.00%     87.07% # Class of committed instruction
system.cpu0.commit.op_class_0::FloatMisc            0      0.00%     87.07% # Class of committed instruction
system.cpu0.commit.op_class_0::FloatSqrt            0      0.00%     87.07% # Class of committed instruction
system.cpu0.commit.op_class_0::SimdAdd              0      0.00%     87.07% # Class of committed instruction
system.cpu0.commit.op_class_0::SimdAddAcc            0      0.00%     87.07% # Class of committed instruction
system.cpu0.commit.op_class_0::SimdAlu              0      0.00%     87.07% # Class of committed instruction
system.cpu0.commit.op_class_0::SimdCmp              0      0.00%     87.07% # Class of committed instruction
system.cpu0.commit.op_class_0::SimdCvt              0      0.00%     87.07% # Class of committed instruction
system.cpu0.commit.op_class_0::SimdMisc             0      0.00%     87.07% # Class of committed instruction
system.cpu0.commit.op_class_0::SimdMult             0      0.00%     87.07% # Class of committed instruction
system.cpu0.commit.op_class_0::SimdMultAcc            0      0.00%     87.07% # Class of committed instruction
system.cpu0.commit.op_class_0::SimdShift            0      0.00%     87.07% # Class of committed instruction
system.cpu0.commit.op_class_0::SimdShiftAcc            0      0.00%     87.07% # Class of committed instruction
system.cpu0.commit.op_class_0::SimdSqrt             0      0.00%     87.07% # Class of committed instruction
system.cpu0.commit.op_class_0::SimdFloatAdd            0      0.00%     87.07% # Class of committed instruction
system.cpu0.commit.op_class_0::SimdFloatAlu            0      0.00%     87.07% # Class of committed instruction
system.cpu0.commit.op_class_0::SimdFloatCmp            0      0.00%     87.07% # Class of committed instruction
system.cpu0.commit.op_class_0::SimdFloatCvt            0      0.00%     87.07% # Class of committed instruction
system.cpu0.commit.op_class_0::SimdFloatDiv            0      0.00%     87.07% # Class of committed instruction
system.cpu0.commit.op_class_0::SimdFloatMisc            0      0.00%     87.07% # Class of committed instruction
system.cpu0.commit.op_class_0::SimdFloatMult            0      0.00%     87.07% # Class of committed instruction
system.cpu0.commit.op_class_0::SimdFloatMultAcc            0      0.00%     87.07% # Class of committed instruction
system.cpu0.commit.op_class_0::SimdFloatSqrt            0      0.00%     87.07% # Class of committed instruction
system.cpu0.commit.op_class_0::MemRead        2880923      7.08%     94.16% # Class of committed instruction
system.cpu0.commit.op_class_0::MemWrite       1640775      4.03%     98.19% # Class of committed instruction
system.cpu0.commit.op_class_0::FloatMemRead       735644      1.81%    100.00% # Class of committed instruction
system.cpu0.commit.op_class_0::FloatMemWrite            0      0.00%    100.00% # Class of committed instruction
system.cpu0.commit.op_class_0::IprAccess            0      0.00%    100.00% # Class of committed instruction
system.cpu0.commit.op_class_0::InstPrefetch            0      0.00%    100.00% # Class of committed instruction
system.cpu0.commit.op_class_0::total         40670879                       # Class of committed instruction
system.cpu0.commit.bw_lim_events              1719786                       # number cycles where commit BW limit reached
system.cpu0.rob.rob_reads                   111023803                       # The number of ROB reads
system.cpu0.rob.rob_writes                  186906615                       # The number of ROB writes
system.cpu0.timesIdled                            141                       # Number of times that the entire CPU went into an idle state and unscheduled itself
system.cpu0.idleCycles                            708                       # Total number of cycles that the CPU has spent unscheduled due to idling
system.cpu0.committedInsts                   18528904                       # Number of Instructions Simulated
system.cpu0.committedOps                     40670879                       # Number of Ops (including micro ops) Simulated
system.cpu0.cpi                              1.647949                       # CPI: Cycles Per Instruction
system.cpu0.cpi_total                        1.647949                       # CPI: Total CPI of All Threads
system.cpu0.ipc                              0.606815                       # IPC: Instructions Per Cycle
system.cpu0.ipc_total                        0.606815                       # IPC: Total IPC of All Threads
system.cpu0.int_regfile_reads                85900814                       # number of integer regfile reads
system.cpu0.int_regfile_writes               50787039                       # number of integer regfile writes
system.cpu0.fp_regfile_reads                 10882750                       # number of floating regfile reads
system.cpu0.fp_regfile_writes                 6548683                       # number of floating regfile writes
system.cpu0.cc_regfile_reads                 35455096                       # number of cc regfile reads
system.cpu0.cc_regfile_writes                17750473                       # number of cc regfile writes
system.cpu0.misc_regfile_reads               21839984                       # number of misc regfile reads
system.cpu0.dcache.tags.pwrStateResidencyTicks::UNDEFINED  15267344125                       # Cumulative time (in ticks) in various power states
system.cpu0.dcache.tags.replacements            20849                       # number of replacements
system.cpu0.dcache.tags.tagsinuse                1024                       # Cycle average of tags in use
system.cpu0.dcache.tags.total_refs             483253                       # Total number of references to valid blocks.
system.cpu0.dcache.tags.sampled_refs            20849                       # Sample count of references to valid blocks.
system.cpu0.dcache.tags.avg_refs            23.178714                       # Average number of references to valid blocks.
system.cpu0.dcache.tags.warmup_cycle                0                       # Cycle when the warmup percentage was hit.
system.cpu0.dcache.tags.occ_blocks::cpu0.data         1024                       # Average occupied blocks per requestor
system.cpu0.dcache.tags.occ_percent::cpu0.data            1                       # Average percentage of cache occupancy
system.cpu0.dcache.tags.occ_percent::total            1                       # Average percentage of cache occupancy
system.cpu0.dcache.tags.occ_task_id_blocks::1024         1024                       # Occupied blocks per task id
system.cpu0.dcache.tags.age_task_id_blocks_1024::0           18                       # Occupied blocks per task id
system.cpu0.dcache.tags.age_task_id_blocks_1024::1          109                       # Occupied blocks per task id
system.cpu0.dcache.tags.age_task_id_blocks_1024::2          756                       # Occupied blocks per task id
system.cpu0.dcache.tags.age_task_id_blocks_1024::3           84                       # Occupied blocks per task id
system.cpu0.dcache.tags.age_task_id_blocks_1024::4           57                       # Occupied blocks per task id
system.cpu0.dcache.tags.occ_task_id_percent::1024            1                       # Percentage of cache occupancy per task id
system.cpu0.dcache.tags.tag_accesses         33287313                       # Number of tag accesses
system.cpu0.dcache.tags.data_accesses        33287313                       # Number of data accesses
system.cpu0.dcache.pwrStateResidencyTicks::UNDEFINED  15267344125                       # Cumulative time (in ticks) in various power states
system.cpu0.dcache.ReadReq_hits::cpu0.data      6646471                       # number of ReadReq hits
system.cpu0.dcache.ReadReq_hits::total        6646471                       # number of ReadReq hits
system.cpu0.dcache.WriteReq_hits::cpu0.data      1631011                       # number of WriteReq hits
system.cpu0.dcache.WriteReq_hits::total       1631011                       # number of WriteReq hits
system.cpu0.dcache.demand_hits::cpu0.data      8277482                       # number of demand (read+write) hits
system.cpu0.dcache.demand_hits::total         8277482                       # number of demand (read+write) hits
system.cpu0.dcache.overall_hits::cpu0.data      8277482                       # number of overall hits
system.cpu0.dcache.overall_hits::total        8277482                       # number of overall hits
system.cpu0.dcache.ReadReq_misses::cpu0.data        29126                       # number of ReadReq misses
system.cpu0.dcache.ReadReq_misses::total        29126                       # number of ReadReq misses
system.cpu0.dcache.WriteReq_misses::cpu0.data        10008                       # number of WriteReq misses
system.cpu0.dcache.WriteReq_misses::total        10008                       # number of WriteReq misses
system.cpu0.dcache.demand_misses::cpu0.data        39134                       # number of demand (read+write) misses
system.cpu0.dcache.demand_misses::total         39134                       # number of demand (read+write) misses
system.cpu0.dcache.overall_misses::cpu0.data        39134                       # number of overall misses
system.cpu0.dcache.overall_misses::total        39134                       # number of overall misses
system.cpu0.dcache.ReadReq_miss_latency::cpu0.data   1961696500                       # number of ReadReq miss cycles
system.cpu0.dcache.ReadReq_miss_latency::total   1961696500                       # number of ReadReq miss cycles
system.cpu0.dcache.WriteReq_miss_latency::cpu0.data    944928000                       # number of WriteReq miss cycles
system.cpu0.dcache.WriteReq_miss_latency::total    944928000                       # number of WriteReq miss cycles
system.cpu0.dcache.demand_miss_latency::cpu0.data   2906624500                       # number of demand (read+write) miss cycles
system.cpu0.dcache.demand_miss_latency::total   2906624500                       # number of demand (read+write) miss cycles
system.cpu0.dcache.overall_miss_latency::cpu0.data   2906624500                       # number of overall miss cycles
system.cpu0.dcache.overall_miss_latency::total   2906624500                       # number of overall miss cycles
system.cpu0.dcache.ReadReq_accesses::cpu0.data      6675597                       # number of ReadReq accesses(hits+misses)
system.cpu0.dcache.ReadReq_accesses::total      6675597                       # number of ReadReq accesses(hits+misses)
system.cpu0.dcache.WriteReq_accesses::cpu0.data      1641019                       # number of WriteReq accesses(hits+misses)
system.cpu0.dcache.WriteReq_accesses::total      1641019                       # number of WriteReq accesses(hits+misses)
[...]
system.l2.ReadCleanReq_miss_rate::cpu0.inst     0.000602                       # miss rate for ReadCleanReq accesses
system.l2.ReadCleanReq_miss_rate::total      0.000602                       # miss rate for ReadCleanReq accesses
system.l2.ReadSharedReq_miss_rate::cpu0.data     0.669818                       # miss rate for ReadSharedReq accesses
system.l2.ReadSharedReq_miss_rate::total     0.669818                       # miss rate for ReadSharedReq accesses
system.l2.demand_miss_rate::cpu0.inst        0.000602                       # miss rate for demand accesses
system.l2.demand_miss_rate::cpu0.data        0.812941                       # miss rate for demand accesses
system.l2.demand_miss_rate::total            0.753032                       # miss rate for demand accesses
system.l2.overall_miss_rate::cpu0.inst       0.000602                       # miss rate for overall accesses
system.l2.overall_miss_rate::cpu0.data       0.812941                       # miss rate for overall accesses
system.l2.overall_miss_rate::total           0.753032                       # miss rate for overall accesses
system.l2.ReadExReq_avg_miss_latency::cpu0.data 93809.831128                       # average ReadExReq miss latency
system.l2.ReadExReq_avg_miss_latency::total 93809.831128                       # average ReadExReq miss latency
system.l2.ReadCleanReq_avg_miss_latency::cpu0.inst        90000                       # average ReadCleanReq miss latency
system.l2.ReadCleanReq_avg_miss_latency::total        90000                       # average ReadCleanReq miss latency
system.l2.ReadSharedReq_avg_miss_latency::cpu0.data 104390.486147                       # average ReadSharedReq miss latency
system.l2.ReadSharedReq_avg_miss_latency::total 104390.486147                       # average ReadSharedReq miss latency
system.l2.demand_avg_miss_latency::cpu0.inst        90000                       # average overall miss latency
system.l2.demand_avg_miss_latency::cpu0.data 98586.701280                       # average overall miss latency
system.l2.demand_avg_miss_latency::total 98586.194690                       # average overall miss latency
system.l2.overall_avg_miss_latency::cpu0.inst        90000                       # average overall miss latency
system.l2.overall_avg_miss_latency::cpu0.data 98586.701280                       # average overall miss latency
system.l2.overall_avg_miss_latency::total 98586.194690                       # average overall miss latency
system.l2.blocked_cycles::no_mshrs                  0                       # number of cycles access was blocked
system.l2.blocked_cycles::no_targets                0                       # number of cycles access was blocked
system.l2.blocked::no_mshrs                         0                       # number of cycles access was blocked
system.l2.blocked::no_targets                       0                       # number of cycles access was blocked
system.l2.avg_blocked_cycles::no_mshrs            nan                       # average number of cycles each access was blocked
system.l2.avg_blocked_cycles::no_targets          nan                       # average number of cycles each access was blocked
system.l2.writebacks::writebacks                15221                       # number of writebacks
system.l2.writebacks::total                     15221                       # number of writebacks
system.l2.ReadExReq_mshr_misses::cpu0.data         9297                       # number of ReadExReq MSHR misses
system.l2.ReadExReq_mshr_misses::total           9297                       # number of ReadExReq MSHR misses
system.l2.ReadCleanReq_mshr_misses::cpu0.inst            1                       # number of ReadCleanReq MSHR misses
system.l2.ReadCleanReq_mshr_misses::total            1                       # number of ReadCleanReq MSHR misses
system.l2.ReadSharedReq_mshr_misses::cpu0.data         7652                       # number of ReadSharedReq MSHR misses
system.l2.ReadSharedReq_mshr_misses::total         7652                       # number of ReadSharedReq MSHR misses
system.l2.demand_mshr_misses::cpu0.inst             1                       # number of demand (read+write) MSHR misses
system.l2.demand_mshr_misses::cpu0.data         16949                       # number of demand (read+write) MSHR misses
system.l2.demand_mshr_misses::total             16950                       # number of demand (read+write) MSHR misses
system.l2.overall_mshr_misses::cpu0.inst            1                       # number of overall MSHR misses
system.l2.overall_mshr_misses::cpu0.data        16949                       # number of overall MSHR misses
system.l2.overall_mshr_misses::total            16950                       # number of overall MSHR misses
system.l2.ReadExReq_mshr_miss_latency::cpu0.data    779180000                       # number of ReadExReq MSHR miss cycles
system.l2.ReadExReq_mshr_miss_latency::total    779180000                       # number of ReadExReq MSHR miss cycles
system.l2.ReadCleanReq_mshr_miss_latency::cpu0.inst        80000                       # number of ReadCleanReq MSHR miss cycles
system.l2.ReadCleanReq_mshr_miss_latency::total        80000                       # number of ReadCleanReq MSHR miss cycles
system.l2.ReadSharedReq_mshr_miss_latency::cpu0.data    722276000                       # number of ReadSharedReq MSHR miss cycles
system.l2.ReadSharedReq_mshr_miss_latency::total    722276000                       # number of ReadSharedReq MSHR miss cycles
system.l2.demand_mshr_miss_latency::cpu0.inst        80000                       # number of demand (read+write) MSHR miss cycles
system.l2.demand_mshr_miss_latency::cpu0.data   1501456000                       # number of demand (read+write) MSHR miss cycles
system.l2.demand_mshr_miss_latency::total   1501536000                       # number of demand (read+write) MSHR miss cycles
system.l2.overall_mshr_miss_latency::cpu0.inst        80000                       # number of overall MSHR miss cycles
system.l2.overall_mshr_miss_latency::cpu0.data   1501456000                       # number of overall MSHR miss cycles
system.l2.overall_mshr_miss_latency::total   1501536000                       # number of overall MSHR miss cycles
system.l2.ReadExReq_mshr_miss_rate::cpu0.data     0.986419                       # mshr miss rate for ReadExReq accesses
system.l2.ReadExReq_mshr_miss_rate::total     0.986419                       # mshr miss rate for ReadExReq accesses
system.l2.ReadCleanReq_mshr_miss_rate::cpu0.inst     0.000602                       # mshr miss rate for ReadCleanReq accesses
system.l2.ReadCleanReq_mshr_miss_rate::total     0.000602                       # mshr miss rate for ReadCleanReq accesses
system.l2.ReadSharedReq_mshr_miss_rate::cpu0.data     0.669818                       # mshr miss rate for ReadSharedReq accesses
system.l2.ReadSharedReq_mshr_miss_rate::total     0.669818                       # mshr miss rate for ReadSharedReq accesses
system.l2.demand_mshr_miss_rate::cpu0.inst     0.000602                       # mshr miss rate for demand accesses
system.l2.demand_mshr_miss_rate::cpu0.data     0.812941                       # mshr miss rate for demand accesses
system.l2.demand_mshr_miss_rate::total       0.753032                       # mshr miss rate for demand accesses
system.l2.overall_mshr_miss_rate::cpu0.inst     0.000602                       # mshr miss rate for overall accesses
system.l2.overall_mshr_miss_rate::cpu0.data     0.812941                       # mshr miss rate for overall accesses
system.l2.overall_mshr_miss_rate::total      0.753032                       # mshr miss rate for overall accesses
system.l2.ReadExReq_avg_mshr_miss_latency::cpu0.data 83809.831128                       # average ReadExReq mshr miss latency
system.l2.ReadExReq_avg_mshr_miss_latency::total 83809.831128                       # average ReadExReq mshr miss latency
system.l2.ReadCleanReq_avg_mshr_miss_latency::cpu0.inst        80000                       # average ReadCleanReq mshr miss latency
system.l2.ReadCleanReq_avg_mshr_miss_latency::total        80000                       # average ReadCleanReq mshr miss latency
system.l2.ReadSharedReq_avg_mshr_miss_latency::cpu0.data 94390.486147                       # average ReadSharedReq mshr miss latency
system.l2.ReadSharedReq_avg_mshr_miss_latency::total 94390.486147                       # average ReadSharedReq mshr miss latency
system.l2.demand_avg_mshr_miss_latency::cpu0.inst        80000                       # average overall mshr miss latency
system.l2.demand_avg_mshr_miss_latency::cpu0.data 88586.701280                       # average overall mshr miss latency
system.l2.demand_avg_mshr_miss_latency::total 88586.194690                       # average overall mshr miss latency
system.l2.overall_avg_mshr_miss_latency::cpu0.inst        80000                       # average overall mshr miss latency
system.l2.overall_avg_mshr_miss_latency::cpu0.data 88586.701280                       # average overall mshr miss latency
system.l2.overall_avg_mshr_miss_latency::total 88586.194690                       # average overall mshr miss latency
system.membus.snoop_filter.tot_requests         33894                       # Total number of requests made to the snoop filter.
system.membus.snoop_filter.hit_single_requests        16945                       # Number of requests hitting in the snoop filter with a single holder of the requested data.
system.membus.snoop_filter.hit_multi_requests            0                       # Number of requests hitting in the snoop filter with multiple (>1) holders of the requested data.
system.membus.snoop_filter.tot_snoops               0                       # Total number of snoops made to the snoop filter.
system.membus.snoop_filter.hit_single_snoops            0                       # Number of snoops hitting in the snoop filter with a single holder of the requested data.
system.membus.snoop_filter.hit_multi_snoops            0                       # Number of snoops hitting in the snoop filter with multiple (>1) holders of the requested data.
system.membus.pwrStateResidencyTicks::UNDEFINED  15267344125                       # Cumulative time (in ticks) in various power states
system.membus.trans_dist::ReadResp               7653                       # Transaction distribution
system.membus.trans_dist::WritebackDirty        15221                       # Transaction distribution
system.membus.trans_dist::CleanEvict             1723                       # Transaction distribution
system.membus.trans_dist::ReadExReq              9297                       # Transaction distribution
system.membus.trans_dist::ReadExResp             9297                       # Transaction distribution
system.membus.trans_dist::ReadSharedReq          7653                       # Transaction distribution
system.membus.pkt_count_system.l2.mem_side::system.mem_ctrls.port        50844                       # Packet count per connected master and slave (bytes)
system.membus.pkt_count_system.l2.mem_side::total        50844                       # Packet count per connected master and slave (bytes)
system.membus.pkt_count::total                  50844                       # Packet count per connected master and slave (bytes)
system.membus.pkt_size_system.l2.mem_side::system.mem_ctrls.port      2058944                       # Cumulative packet size per connected master and slave (bytes)
system.membus.pkt_size_system.l2.mem_side::total      2058944                       # Cumulative packet size per connected master and slave (bytes)
system.membus.pkt_size::total                 2058944                       # Cumulative packet size per connected master and slave (bytes)
system.membus.snoops                                0                       # Total snoops (count)
system.membus.snoopTraffic                          0                       # Total snoop traffic (bytes)
system.membus.snoop_fanout::samples             16950                       # Request fanout histogram
system.membus.snoop_fanout::mean                    0                       # Request fanout histogram
system.membus.snoop_fanout::stdev                   0                       # Request fanout histogram
system.membus.snoop_fanout::underflows              0      0.00%      0.00% # Request fanout histogram
system.membus.snoop_fanout::0                   16950    100.00%    100.00% # Request fanout histogram
system.membus.snoop_fanout::1                       0      0.00%    100.00% # Request fanout histogram
system.membus.snoop_fanout::overflows               0      0.00%    100.00% # Request fanout histogram
system.membus.snoop_fanout::min_value               0                       # Request fanout histogram
system.membus.snoop_fanout::max_value               0                       # Request fanout histogram
system.membus.snoop_fanout::total               16950                       # Request fanout histogram
system.membus.reqLayer8.occupancy            99003500                       # Layer occupancy (ticks)
system.membus.reqLayer8.utilization               0.6                       # Layer utilization (%)
system.membus.respLayer1.occupancy           92004250                       # Layer occupancy (ticks)
system.membus.respLayer1.utilization              0.6                       # Layer utilization (%)
system.tol2bus.snoop_filter.tot_requests        45050                       # Total number of requests made to the snoop filter.
system.tol2bus.snoop_filter.hit_single_requests        22508                       # Number of requests hitting in the snoop filter with a single holder of the requested data.
system.tol2bus.snoop_filter.hit_multi_requests           59                       # Number of requests hitting in the snoop filter with multiple (>1) holders of the requested data.
system.tol2bus.snoop_filter.tot_snoops              8                       # Total number of snoops made to the snoop filter.
system.tol2bus.snoop_filter.hit_single_snoops            8                       # Number of snoops hitting in the snoop filter with a single holder of the requested data.
system.tol2bus.snoop_filter.hit_multi_snoops            0                       # Number of snoops hitting in the snoop filter with multiple (>1) holders of the requested data.
system.tol2bus.pwrStateResidencyTicks::UNDEFINED  15267344125                       # Cumulative time (in ticks) in various power states
system.tol2bus.trans_dist::ReadResp             13100                       # Transaction distribution
system.tol2bus.trans_dist::WritebackDirty        32049                       # Transaction distribution
system.tol2bus.trans_dist::WritebackClean         1660                       # Transaction distribution
system.tol2bus.trans_dist::CleanEvict            5752                       # Transaction distribution
system.tol2bus.trans_dist::UpgradeReq              16                       # Transaction distribution
system.tol2bus.trans_dist::UpgradeResp             16                       # Transaction distribution
system.tol2bus.trans_dist::ReadExReq             9425                       # Transaction distribution
system.tol2bus.trans_dist::ReadExResp            9425                       # Transaction distribution
system.tol2bus.trans_dist::ReadCleanReq          1676                       # Transaction distribution
system.tol2bus.trans_dist::ReadSharedReq        11424                       # Transaction distribution
system.tol2bus.pkt_count_system.cpu0.icache.mem_side::system.l2.cpu_side         4996                       # Packet count per connected master and slave (bytes)
system.tol2bus.pkt_count_system.cpu0.dcache.mem_side::system.l2.cpu_side        62579                       # Packet count per connected master and slave (bytes)
system.tol2bus.pkt_count::total                 67575                       # Packet count per connected master and slave (bytes)
system.tol2bus.pkt_size_system.cpu0.icache.mem_side::system.l2.cpu_side       212480                       # Cumulative packet size per connected master and slave (bytes)
system.tol2bus.pkt_size_system.cpu0.dcache.mem_side::system.l2.cpu_side      2411328                       # Cumulative packet size per connected master and slave (bytes)
system.tol2bus.pkt_size::total                2623808                       # Cumulative packet size per connected master and slave (bytes)
system.tol2bus.snoops                           16968                       # Total snoops (count)
system.tol2bus.snoopTraffic                    975168                       # Total snoop traffic (bytes)
system.tol2bus.snoop_fanout::samples            39493                       # Request fanout histogram
system.tol2bus.snoop_fanout::mean            0.001671                       # Request fanout histogram
system.tol2bus.snoop_fanout::stdev           0.040846                       # Request fanout histogram
system.tol2bus.snoop_fanout::underflows             0      0.00%      0.00% # Request fanout histogram
system.tol2bus.snoop_fanout::0                  39427     99.83%     99.83% # Request fanout histogram
system.tol2bus.snoop_fanout::1                     66      0.17%    100.00% # Request fanout histogram
system.tol2bus.snoop_fanout::2                      0      0.00%    100.00% # Request fanout histogram
system.tol2bus.snoop_fanout::3                      0      0.00%    100.00% # Request fanout histogram
system.tol2bus.snoop_fanout::4                      0      0.00%    100.00% # Request fanout histogram
system.tol2bus.snoop_fanout::5                      0      0.00%    100.00% # Request fanout histogram
system.tol2bus.snoop_fanout::6                      0      0.00%    100.00% # Request fanout histogram
system.tol2bus.snoop_fanout::7                      0      0.00%    100.00% # Request fanout histogram
system.tol2bus.snoop_fanout::8                      0      0.00%    100.00% # Request fanout histogram
system.tol2bus.snoop_fanout::9                      0      0.00%    100.00% # Request fanout histogram
system.tol2bus.snoop_fanout::10                     0      0.00%    100.00% # Request fanout histogram
system.tol2bus.snoop_fanout::11                     0      0.00%    100.00% # Request fanout histogram
system.tol2bus.snoop_fanout::12                     0      0.00%    100.00% # Request fanout histogram
system.tol2bus.snoop_fanout::13                     0      0.00%    100.00% # Request fanout histogram
system.tol2bus.snoop_fanout::14                     0      0.00%    100.00% # Request fanout histogram
system.tol2bus.snoop_fanout::15                     0      0.00%    100.00% # Request fanout histogram
system.tol2bus.snoop_fanout::16                     0      0.00%    100.00% # Request fanout histogram
system.tol2bus.snoop_fanout::overflows              0      0.00%    100.00% # Request fanout histogram
system.tol2bus.snoop_fanout::min_value              0                       # Request fanout histogram
system.tol2bus.snoop_fanout::max_value              1                       # Request fanout histogram
system.tol2bus.snoop_fanout::total              39493                       # Request fanout histogram
system.tol2bus.reqLayer0.occupancy           41013000                       # Layer occupancy (ticks)
system.tol2bus.reqLayer0.utilization              0.3                       # Layer utilization (%)
system.tol2bus.respLayer0.occupancy           2514000                       # Layer occupancy (ticks)
system.tol2bus.respLayer0.utilization             0.0                       # Layer utilization (%)
system.tol2bus.respLayer1.occupancy          31283496                       # Layer occupancy (ticks)
system.tol2bus.respLayer1.utilization             0.2                       # Layer utilization (%)

---------- End Simulation Statistics   ----------
