
---------- Begin Simulation Statistics ----------
sim_seconds                                  0.015267                       # Number of seconds simulated
sim_ticks                                 15267344125                       # Number of ticks simulated
final_tick                               610693765000                       # Number of ticks from beginning of simulation (restored from checkpoints and never reset)
sim_freq                                 1000000000000                       # Frequency of simulated ticks
host_inst_rate                                5464783                       # Simulator instruction rate (inst/s)
host_op_rate                                 10338261                       # Simulator op (including micro ops) rate (op/s)
host_tick_rate                               60432186                       # Simulator tick rate (ticks/s)
host_mem_usage                                2303212                       # Number of bytes of host memory used
host_seconds                                   252.64                       # Real time elapsed on the host
sim_insts                                  1380600707                       # Number of instructions simulated
sim_ops                                    2611816344                       # Number of ops (including micro ops) simulated
system.voltage_domain.voltage                       1                       # Voltage in Volts
system.clk_domain.clock                          1000                       # Clock period in ticks
system.mem_ctrls.pwrStateResidencyTicks::UNDEFINED  15267344125                       # Cumulative time (in ticks) in various power states
system.mem_ctrls.bytes_read::cpu0.inst            384                       # Number of bytes read from this memory
system.mem_ctrls.bytes_read::cpu0.data        3394112                       # Number of bytes read from this memory
system.mem_ctrls.bytes_read::total            3394496                       # Number of bytes read from this memory
system.mem_ctrls.bytes_inst_read::cpu0.inst          384                       # Number of instructions bytes read from this memory
system.mem_ctrls.bytes_inst_read::total           384                       # Number of instructions bytes read from this memory
system.mem_ctrls.bytes_written::writebacks      1634304                       # Number of bytes written to this memory
system.mem_ctrls.bytes_written::total         1634304                       # Number of bytes written to this memory
system.mem_ctrls.num_reads::cpu0.inst               6                       # Number of read requests responded to by this memory
system.mem_ctrls.num_reads::cpu0.data           53033                       # Number of read requests responded to by this memory
system.mem_ctrls.num_reads::total               53039                       # Number of read requests responded to by this memory
system.mem_ctrls.num_writes::writebacks         25536                       # Number of write requests responded to by this memory
system.mem_ctrls.num_writes::total              25536                       # Number of write requests responded to by this memory
system.mem_ctrls.bw_read::cpu0.inst             25152                       # Total read bandwidth from this memory (bytes/s)
system.mem_ctrls.bw_read::cpu0.data         222311882                       # Total read bandwidth from this memory (bytes/s)
system.mem_ctrls.bw_read::total             222337033                       # Total read bandwidth from this memory (bytes/s)
system.mem_ctrls.bw_inst_read::cpu0.inst        25152                       # Instruction read bandwidth from this memory (bytes/s)
system.mem_ctrls.bw_inst_read::total            25152                       # Instruction read bandwidth from this memory (bytes/s)
system.mem_ctrls.bw_write::writebacks       107045730                       # Write bandwidth from this memory (bytes/s)
system.mem_ctrls.bw_write::total            107045730                       # Write bandwidth from this memory (bytes/s)
system.mem_ctrls.bw_total::writebacks       107045730                       # Total bandwidth to/from this memory (bytes/s)
system.mem_ctrls.bw_total::cpu0.inst            25152                       # Total bandwidth to/from this memory (bytes/s)
system.mem_ctrls.bw_total::cpu0.data        222311882                       # Total bandwidth to/from this memory (bytes/s)
system.mem_ctrls.bw_total::total            329382764                       # Total bandwidth to/from this memory (bytes/s)
system.mem_ctrls.readReqs                       53039                       # Number of read requests accepted
system.mem_ctrls.writeReqs                      25536                       # Number of write requests accepted
system.mem_ctrls.readBursts                     53039                       # Number of DRAM read bursts, including those serviced by the write queue
system.mem_ctrls.writeBursts                    25536                       # Number of DRAM write bursts, including those merged in the write queue
system.mem_ctrls.bytesReadDRAM                3393920                       # Total number of bytes read from DRAM
system.mem_ctrls.bytesReadWrQ                     576                       # Total number of bytes read from write queue
system.mem_ctrls.bytesWritten                 1633856                       # Total number of bytes written to DRAM
system.mem_ctrls.bytesReadSys                 3394496                       # Total read bytes from the system interface side
system.mem_ctrls.bytesWrittenSys              1634304                       # Total written bytes from the system interface side
system.mem_ctrls.servicedByWrQ                      9                       # Number of DRAM read bursts serviced by the write queue
system.mem_ctrls.mergedWrBursts                     0                       # Number of DRAM write bursts merged with an existing one
system.mem_ctrls.neitherReadNorWriteReqs            0                       # Number of requests that are neither read nor write
system.mem_ctrls.perBankRdBursts::0              3249                       # Per bank write bursts
system.mem_ctrls.perBankRdBursts::1              3423                       # Per bank write bursts
system.mem_ctrls.perBankRdBursts::2              3537                       # Per bank write bursts
system.mem_ctrls.perBankRdBursts::3              3587                       # Per bank write bursts
system.mem_ctrls.perBankRdBursts::4              3313                       # Per bank write bursts
system.mem_ctrls.perBankRdBursts::5              3108                       # Per bank write bursts
system.mem_ctrls.perBankRdBursts::6              3288                       # Per bank write bursts
system.mem_ctrls.perBankRdBursts::7              3235                       # Per bank write bursts
system.mem_ctrls.perBankRdBursts::8              3280                       # Per bank write bursts
system.mem_ctrls.perBankRdBursts::9              3483                       # Per bank write bursts
system.mem_ctrls.perBankRdBursts::10             3245                       # Per bank write bursts
system.mem_ctrls.perBankRdBursts::11             3283                       # Per bank write bursts
system.mem_ctrls.perBankRdBursts::12             3334                       # Per bank write bursts
system.mem_ctrls.perBankRdBursts::13             3182                       # Per bank write bursts
system.mem_ctrls.perBankRdBursts::14             3216                       # Per bank write bursts
system.mem_ctrls.perBankRdBursts::15             3267                       # Per bank write bursts
system.mem_ctrls.perBankWrBursts::0              1507                       # Per bank write bursts
system.mem_ctrls.perBankWrBursts::1              1655                       # Per bank write bursts
system.mem_ctrls.perBankWrBursts::2              1678                       # Per bank write bursts
system.mem_ctrls.perBankWrBursts::3              1644                       # Per bank write bursts
system.mem_ctrls.perBankWrBursts::4              1627                       # Per bank write bursts
system.mem_ctrls.perBankWrBursts::5              1580                       # Per bank write bursts
system.mem_ctrls.perBankWrBursts::6              1694                       # Per bank write bursts
system.mem_ctrls.perBankWrBursts::7              1615                       # Per bank write bursts
system.mem_ctrls.perBankWrBursts::8              1596                       # Per bank write bursts
system.mem_ctrls.perBankWrBursts::9              1694                       # Per bank write bursts
system.mem_ctrls.perBankWrBursts::10             1598                       # Per bank write bursts
system.mem_ctrls.perBankWrBursts::11             1418                       # Per bank write bursts
system.mem_ctrls.perBankWrBursts::12             1556                       # Per bank write bursts
system.mem_ctrls.perBankWrBursts::13             1568                       # Per bank write bursts
system.mem_ctrls.perBankWrBursts::14             1551                       # Per bank write bursts
system.mem_ctrls.perBankWrBursts::15             1548                       # Per bank write bursts
system.mem_ctrls.numRdRetry                         0                       # Number of times read queue was full causing retry
system.mem_ctrls.numWrRetry                         0                       # Number of times write queue was full causing retry
system.mem_ctrls.totGap                   15267535000                       # Total gap between requests
system.mem_ctrls.readPktSize::0                     0                       # Read request sizes (log2)
system.mem_ctrls.readPktSize::1                     0                       # Read request sizes (log2)
system.mem_ctrls.readPktSize::2                     0                       # Read request sizes (log2)
system.mem_ctrls.readPktSize::3                     0                       # Read request sizes (log2)
system.mem_ctrls.readPktSize::4                     0                       # Read request sizes (log2)
system.mem_ctrls.readPktSize::5                     0                       # Read request sizes (log2)
system.mem_ctrls.readPktSize::6                 53039                       # Read request sizes (log2)
system.mem_ctrls.writePktSize::0                    0                       # Write request sizes (log2)
system.mem_ctrls.writePktSize::1                    0                       # Write request sizes (log2)
system.mem_ctrls.writePktSize::2                    0                       # Write request sizes (log2)
system.mem_ctrls.writePktSize::3                    0                       # Write request sizes (log2)
system.mem_ctrls.writePktSize::4                    0                       # Write request sizes (log2)
system.mem_ctrls.writePktSize::5                    0                       # Write request sizes (log2)
system.mem_ctrls.writePktSize::6                25536                       # Write request sizes (log2)
system.mem_ctrls.rdQLenPdf::0                   49912                       # What read queue length does an incoming req see
system.mem_ctrls.rdQLenPdf::1                    2925                       # What read queue length does an incoming req see
system.mem_ctrls.rdQLenPdf::2                     192                       # What read queue length does an incoming req see
system.mem_ctrls.rdQLenPdf::3                       1                       # What read queue length does an incoming req see
system.mem_ctrls.rdQLenPdf::4                       0                       # What read queue length does an incoming req see
system.mem_ctrls.rdQLenPdf::5                       0                       # What read queue length does an incoming req see
system.mem_ctrls.rdQLenPdf::6                       0                       # What read queue length does an incoming req see
system.mem_ctrls.rdQLenPdf::7                       0                       # What read queue length does an incoming req see
system.mem_ctrls.rdQLenPdf::8                       0                       # What read queue length does an incoming req see
system.mem_ctrls.rdQLenPdf::9                       0                       # What read queue length does an incoming req see
system.mem_ctrls.rdQLenPdf::10                      0                       # What read queue length does an incoming req see
system.mem_ctrls.rdQLenPdf::11                      0                       # What read queue length does an incoming req see
system.mem_ctrls.rdQLenPdf::12                      0                       # What read queue length does an incoming req see
system.mem_ctrls.rdQLenPdf::13                      0                       # What read queue length does an incoming req see
system.mem_ctrls.rdQLenPdf::14                      0                       # What read queue length does an incoming req see
system.mem_ctrls.rdQLenPdf::15                      0                       # What read queue length does an incoming req see
system.mem_ctrls.rdQLenPdf::16                      0                       # What read queue length does an incoming req see
system.mem_ctrls.rdQLenPdf::17                      0                       # What read queue length does an incoming req see
system.mem_ctrls.rdQLenPdf::18                      0                       # What read queue length does an incoming req see
system.mem_ctrls.rdQLenPdf::19                      0                       # What read queue length does an incoming req see
system.mem_ctrls.rdQLenPdf::20                      0                       # What read queue length does an incoming req see
system.mem_ctrls.rdQLenPdf::21                      0                       # What read queue length does an incoming req see
system.mem_ctrls.rdQLenPdf::22                      0                       # What read queue length does an incoming req see
system.mem_ctrls.rdQLenPdf::23                      0                       # What read queue length does an incoming req see
system.mem_ctrls.rdQLenPdf::24                      0                       # What read queue length does an incoming req see
system.mem_ctrls.rdQLenPdf::25                      0                       # What read queue length does an incoming req see
system.mem_ctrls.rdQLenPdf::26                      0                       # What read queue length does an incoming req see
system.mem_ctrls.rdQLenPdf::27                      0                       # What read queue length does an incoming req see
system.mem_ctrls.rdQLenPdf::28                      0                       # What read queue length does an incoming req see
system.mem_ctrls.rdQLenPdf::29                      0                       # What read queue length does an incoming req see
system.mem_ctrls.rdQLenPdf::30                      0                       # What read queue length does an incoming req see
system.mem_ctrls.rdQLenPdf::31                      0                       # What read queue length does an incoming req see
system.mem_ctrls.wrQLenPdf::0                       0                       # What write queue length does an incoming req see
system.mem_ctrls.wrQLenPdf::1                       0                       # What write queue length does an incoming req see
system.mem_ctrls.wrQLenPdf::2                       0                       # What write queue length does an incoming req see
system.mem_ctrls.wrQLenPdf::3                       0                       # What write queue length does an incoming req see
system.mem_ctrls.wrQLenPdf::4                       0                       # What write queue length does an incoming req see
system.mem_ctrls.wrQLenPdf::5                       0                       # What write queue length does an incoming req see
system.mem_ctrls.wrQLenPdf::6                       0                       # What write queue length does an incoming req see
system.mem_ctrls.wrQLenPdf::7                       0                       # What write queue length does an incoming req see
system.mem_ctrls.wrQLenPdf::8                       0                       # What write queue length does an incoming req see
system.mem_ctrls.wrQLenPdf::9                       0                       # What write queue length does an incoming req see
system.mem_ctrls.wrQLenPdf::10                      0                       # What write queue length does an incoming req see
system.mem_ctrls.wrQLenPdf::11                      0                       # What write queue length does an incoming req see
system.mem_ctrls.wrQLenPdf::12                      0                       # What write queue length does an incoming req see
system.mem_ctrls.wrQLenPdf::13                      0                       # What write queue length does an incoming req see
system.mem_ctrls.wrQLenPdf::14                      0                       # What write queue length does an incoming req see
system.mem_ctrls.wrQLenPdf::15                    935                       # What write queue length does an incoming req see
system.mem_ctrls.wrQLenPdf::16                    988                       # What write queue length does an incoming req see
system.mem_ctrls.wrQLenPdf::17                   1452                       # What write queue length does an incoming req see
system.mem_ctrls.wrQLenPdf::18                   1472                       # What write queue length does an incoming req see
system.mem_ctrls.wrQLenPdf::19                   1472                       # What write queue length does an incoming req see
system.mem_ctrls.wrQLenPdf::20                   1474                       # What write queue length does an incoming req see
system.mem_ctrls.wrQLenPdf::21                   1472                       # What write queue length does an incoming req see
system.mem_ctrls.wrQLenPdf::22                   1473                       # What write queue length does an incoming req see
system.mem_ctrls.wrQLenPdf::23                   1476                       # What write queue length does an incoming req see
system.mem_ctrls.wrQLenPdf::24                   1474                       # What write queue length does an incoming req see
system.mem_ctrls.wrQLenPdf::25                   1475                       # What write queue length does an incoming req see
system.mem_ctrls.wrQLenPdf::26                   1474                       # What write queue length does an incoming req see
system.mem_ctrls.wrQLenPdf::27                   1474                       # What write queue length does an incoming req see
system.mem_ctrls.wrQLenPdf::28                   1476                       # What write queue length does an incoming req see
system.mem_ctrls.wrQLenPdf::29                   1475                       # What write queue length does an incoming req see
system.mem_ctrls.wrQLenPdf::30                   1508                       # What write queue length does an incoming req see
system.mem_ctrls.wrQLenPdf::31                   1487                       # What write queue length does an incoming req see
system.mem_ctrls.wrQLenPdf::32                   1479                       # What write queue length does an incoming req see
system.mem_ctrls.wrQLenPdf::33                      0                       # What write queue length does an incoming req see
system.mem_ctrls.wrQLenPdf::34                      0                       # What write queue length does an incoming req see
system.mem_ctrls.wrQLenPdf::35                      0                       # What write queue length does an incoming req see
system.mem_ctrls.wrQLenPdf::36                      0                       # What write queue length does an incoming req see
system.mem_ctrls.wrQLenPdf::37                      0                       # What write queue length does an incoming req see
system.mem_ctrls.wrQLenPdf::38                      0                       # What write queue length does an incoming req see
system.mem_ctrls.wrQLenPdf::39                      0                       # What write queue length does an incoming req see
system.mem_ctrls.wrQLenPdf::40                      0                       # What write queue length does an incoming req see
system.mem_ctrls.wrQLenPdf::41                      0                       # What write queue length does an incoming req see
system.mem_ctrls.wrQLenPdf::42                      0                       # What write queue length does an incoming req see
system.mem_ctrls.wrQLenPdf::43                      0                       # What write queue length does an incoming req see
system.mem_ctrls.wrQLenPdf::44                      0                       # What write queue length does an incoming req see
system.mem_ctrls.wrQLenPdf::45                      0                       # What write queue length does an incoming req see
system.mem_ctrls.wrQLenPdf::46                      0                       # What write queue length does an incoming req see
system.mem_ctrls.wrQLenPdf::47                      0                       # What write queue length does an incoming req see
system.mem_ctrls.wrQLenPdf::48                      0                       # What write queue length does an incoming req see
system.mem_ctrls.wrQLenPdf::49                      0                       # What write queue length does an incoming req see
system.mem_ctrls.wrQLenPdf::50                      0                       # What write queue length does an incoming req see
system.mem_ctrls.wrQLenPdf::51                      0                       # What write queue length does an incoming req see
system.mem_ctrls.wrQLenPdf::52                      0                       # What write queue length does an incoming req see
system.mem_ctrls.wrQLenPdf::53                      0                       # What write queue length does an incoming req see
system.mem_ctrls.wrQLenPdf::54                      0                       # What write queue length does an incoming req see
system.mem_ctrls.wrQLenPdf::55                      0                       # What write queue length does an incoming req see
system.mem_ctrls.wrQLenPdf::56                      0                       # What write queue length does an incoming req see
system.mem_ctrls.wrQLenPdf::57                      0                       # What write queue length does an incoming req see
system.mem_ctrls.wrQLenPdf::58                      0                       # What write queue length does an incoming req see
system.mem_ctrls.wrQLenPdf::59                      0                       # What write queue length does an incoming req see
system.mem_ctrls.wrQLenPdf::60                      0                       # What write queue length does an incoming req see
system.mem_ctrls.wrQLenPdf::61                      0                       # What write queue length does an incoming req see
system.mem_ctrls.wrQLenPdf::62                      0                       # What write queue length does an incoming req see
system.mem_ctrls.wrQLenPdf::63                      0                       # What write queue length does an incoming req see
system.mem_ctrls.bytesPerActivate::samples        40571                       # Bytes accessed per row activation
system.mem_ctrls.bytesPerActivate::mean    123.926943                       # Bytes accessed per row activation
system.mem_ctrls.bytesPerActivate::gmean    97.574619                       # Bytes accessed per row activation
system.mem_ctrls.bytesPerActivate::stdev   118.794513                       # Bytes accessed per row activation
system.mem_ctrls.bytesPerActivate::64-127        24373     60.07%     60.07% # Bytes accessed per row activation
system.mem_ctrls.bytesPerActivate::128-191         8837     21.78%     81.86% # Bytes accessed per row activation
system.mem_ctrls.bytesPerActivate::192-255         3015      7.43%     89.29% # Bytes accessed per row activation
system.mem_ctrls.bytesPerActivate::256-319         1516      3.74%     93.02% # Bytes accessed per row activation
system.mem_ctrls.bytesPerActivate::320-383          898      2.21%     95.24% # Bytes accessed per row activation
system.mem_ctrls.bytesPerActivate::384-447          428      1.05%     96.29% # Bytes accessed per row activation
system.mem_ctrls.bytesPerActivate::448-511          311      0.77%     97.06% # Bytes accessed per row activation
system.mem_ctrls.bytesPerActivate::512-575          267      0.66%     97.72% # Bytes accessed per row activation
system.mem_ctrls.bytesPerActivate::576-639          224      0.55%     98.27% # Bytes accessed per row activation
system.mem_ctrls.bytesPerActivate::640-703          202      0.50%     98.77% # Bytes accessed per row activation
system.mem_ctrls.bytesPerActivate::704-767          158      0.39%     99.16% # Bytes accessed per row activation
system.mem_ctrls.bytesPerActivate::768-831          194      0.48%     99.64% # Bytes accessed per row activation
system.mem_ctrls.bytesPerActivate::832-895          142      0.35%     99.99% # Bytes accessed per row activation
system.mem_ctrls.bytesPerActivate::896-959            5      0.01%    100.00% # Bytes accessed per row activation
system.mem_ctrls.bytesPerActivate::960-1023            1      0.00%    100.00% # Bytes accessed per row activation
system.mem_ctrls.bytesPerActivate::total        40571                       # Bytes accessed per row activation
system.mem_ctrls.rdPerTurnAround::samples         1472                       # Reads before turning the bus around for writes
system.mem_ctrls.rdPerTurnAround::mean      36.181386                       # Reads before turning the bus around for writes
system.mem_ctrls.rdPerTurnAround::gmean     30.019967                       # Reads before turning the bus around for writes
system.mem_ctrls.rdPerTurnAround::stdev     42.311160                       # Reads before turning the bus around for writes
system.mem_ctrls.rdPerTurnAround::0-31           1093     74.25%     74.25% # Reads before turning the bus around for writes
system.mem_ctrls.rdPerTurnAround::32-63           269     18.27%     92.53% # Reads before turning the bus around for writes
system.mem_ctrls.rdPerTurnAround::64-95            54      3.67%     96.20% # Reads before turning the bus around for writes
system.mem_ctrls.rdPerTurnAround::96-127           20      1.36%     97.55% # Reads before turning the bus around for writes
system.mem_ctrls.rdPerTurnAround::128-159           11      0.75%     98.30% # Reads before turning the bus around for writes
system.mem_ctrls.rdPerTurnAround::160-191            5      0.34%     98.64% # Reads before turning the bus around for writes
system.mem_ctrls.rdPerTurnAround::192-223            4      0.27%     98.91% # Reads before turning the bus around for writes
system.mem_ctrls.rdPerTurnAround::224-255            4      0.27%     99.18% # Reads before turning the bus around for writes
system.mem_ctrls.rdPerTurnAround::256-287            3      0.20%     99.39% # Reads before turning the bus around for writes
system.mem_ctrls.rdPerTurnAround::288-319            1      0.07%     99.46% # Reads before turning the bus around for writes
system.mem_ctrls.rdPerTurnAround::320-351            1      0.07%     99.52% # Reads before turning the bus around for writes
system.mem_ctrls.rdPerTurnAround::352-383            1      0.07%     99.59% # Reads before turning the bus around for writes
system.mem_ctrls.rdPerTurnAround::384-415            3      0.20%     99.80% # Reads before turning the bus around for writes
system.mem_ctrls.rdPerTurnAround::544-575            2      0.14%     99.93% # Reads before turning the bus around for writes
system.mem_ctrls.rdPerTurnAround::640-671            1      0.07%    100.00% # Reads before turning the bus around for writes
system.mem_ctrls.rdPerTurnAround::total          1472                       # Reads before turning the bus around for writes
system.mem_ctrls.wrPerTurnAround::samples         1472                       # Writes before turning the bus around for reads
system.mem_ctrls.wrPerTurnAround::mean      17.343071                       # Writes before turning the bus around for reads
system.mem_ctrls.wrPerTurnAround::gmean     17.314970                       # Writes before turning the bus around for reads
system.mem_ctrls.wrPerTurnAround::stdev      0.978265                       # Writes before turning the bus around for reads
system.mem_ctrls.wrPerTurnAround::16              482     32.74%     32.74% # Writes before turning the bus around for reads
system.mem_ctrls.wrPerTurnAround::17               53      3.60%     36.35% # Writes before turning the bus around for reads
system.mem_ctrls.wrPerTurnAround::18              893     60.67%     97.01% # Writes before turning the bus around for reads
system.mem_ctrls.wrPerTurnAround::19               38      2.58%     99.59% # Writes before turning the bus around for reads
system.mem_ctrls.wrPerTurnAround::20                6      0.41%    100.00% # Writes before turning the bus around for reads
system.mem_ctrls.wrPerTurnAround::total          1472                       # Writes before turning the bus around for reads
system.mem_ctrls.totQLat                   1162729000                       # Total ticks spent queuing
system.mem_ctrls.totMemAccLat              2157041500                       # Total ticks spent from burst creation until serviced by the DRAM
system.mem_ctrls.totBusLat                  265150000                       # Total ticks spent in databus transfers
system.mem_ctrls.avgQLat                     21925.87                       # Average queueing delay per DRAM burst
system.mem_ctrls.avgBusLat                    5000.00                       # Average bus latency per DRAM burst
system.mem_ctrls.avgMemAccLat                40675.87                       # Average memory access latency per DRAM burst
system.mem_ctrls.avgRdBW                       222.30                       # Average DRAM read bandwidth in MiByte/s
system.mem_ctrls.avgWrBW                       107.02                       # Average achieved write bandwidth in MiByte/s
system.mem_ctrls.avgRdBWSys                    222.34                       # Average system read bandwidth in MiByte/s
system.mem_ctrls.avgWrBWSys                    107.05                       # Average system write bandwidth in MiByte/s
system.mem_ctrls.peakBW                      12800.00                       # Theoretical peak bandwidth in MiByte/s
system.mem_ctrls.busUtil                         2.57                       # Data bus utilization in percentage
system.mem_ctrls.busUtilRead                     1.74                       # Data bus utilization in percentage for reads
system.mem_ctrls.busUtilWrite                    0.84                       # Data bus utilization in percentage for writes
system.mem_ctrls.avgRdQLen                       1.06                       # Average read queue length when enqueuing
system.mem_ctrls.avgWrQLen                      24.84                       # Average write queue length when enqueuing
system.mem_ctrls.readRowHits                    29199                       # Number of row buffer hits during reads
system.mem_ctrls.writeRowHits                    8789                       # Number of row buffer hits during writes
system.mem_ctrls.readRowHitRate                 55.06                       # Row buffer hit rate for reads
system.mem_ctrls.writeRowHitRate                34.42                       # Row buffer hit rate for writes
system.mem_ctrls.avgGap                     194305.25                       # Average gap between requests
system.mem_ctrls.pageHitRate                    48.35                       # Row buffer hit rate, read and write combined
system.mem_ctrls_0.actEnergy                147526680                       # Energy for activate commands per rank (pJ)
system.mem_ctrls_0.preEnergy                 78408495                       # Energy for precharge commands per rank (pJ)
system.mem_ctrls_0.readEnergy               190923600                       # Energy for read commands per rank (pJ)
system.mem_ctrls_0.writeEnergy               67860000                       # Energy for write commands per rank (pJ)
system.mem_ctrls_0.refreshEnergy         1188099120.000000                       # Energy for refresh commands per rank (pJ)
system.mem_ctrls_0.actBackEnergy            994720680                       # Energy for active background per rank (pJ)
system.mem_ctrls_0.preBackEnergy             35551680                       # Energy for precharge background per rank (pJ)
system.mem_ctrls_0.actPowerDownEnergy      5371502160                       # Energy for active power-down per rank (pJ)
system.mem_ctrls_0.prePowerDownEnergy       312082560                       # Energy for precharge power-down per rank (pJ)
system.mem_ctrls_0.selfRefreshEnergy        110053500                       # Energy for self refresh per rank (pJ)
system.mem_ctrls_0.totalEnergy             8496788475                       # Total energy per rank (pJ)
system.mem_ctrls_0.averagePower            556.533501                       # Core power per rank (mW)
system.mem_ctrls_0.totalIdleTime          12992780875                       # Total Idle time Per DRAM Rank
system.mem_ctrls_0.memoryStateTime::IDLE     20655000                       # Time in different power states
system.mem_ctrls_0.memoryStateTime::REF     502748000                       # Time in different power states
system.mem_ctrls_0.memoryStateTime::SREF    400897750                       # Time in different power states
system.mem_ctrls_0.memoryStateTime::PRE_PDN    812614500                       # Time in different power states
system.mem_ctrls_0.memoryStateTime::ACT    1751087000                       # Time in different power states
system.mem_ctrls_0.memoryStateTime::ACT_PDN  11779341875                       # Time in different power states
system.mem_ctrls_1.actEnergy                142150260                       # Energy for activate commands per rank (pJ)
system.mem_ctrls_1.preEnergy                 75558450                       # Energy for precharge commands per rank (pJ)
system.mem_ctrls_1.readEnergy               187710600                       # Energy for read commands per rank (pJ)
system.mem_ctrls_1.writeEnergy               65401380                       # Energy for write commands per rank (pJ)
system.mem_ctrls_1.refreshEnergy         1194245520.000000                       # Energy for refresh commands per rank (pJ)
system.mem_ctrls_1.actBackEnergy            974360850                       # Energy for active background per rank (pJ)
system.mem_ctrls_1.preBackEnergy             34439520                       # Energy for precharge background per rank (pJ)
system.mem_ctrls_1.actPowerDownEnergy      5364070500                       # Energy for active power-down per rank (pJ)
system.mem_ctrls_1.prePowerDownEnergy       357195840                       # Energy for precharge power-down per rank (pJ)
system.mem_ctrls_1.selfRefreshEnergy         99388860                       # Energy for self refresh per rank (pJ)
system.mem_ctrls_1.totalEnergy             8494584060                       # Total energy per rank (pJ)
system.mem_ctrls_1.averagePower            556.389113                       # Core power per rank (mW)
system.mem_ctrls_1.totalIdleTime          13039227875                       # Total Idle time Per DRAM Rank
system.mem_ctrls_1.memoryStateTime::IDLE     21883750                       # Time in different power states
system.mem_ctrls_1.memoryStateTime::REF     505360000                       # Time in different power states
system.mem_ctrls_1.memoryStateTime::SREF    347252250                       # Time in different power states
system.mem_ctrls_1.memoryStateTime::PRE_PDN    930493750                       # Time in different power states
system.mem_ctrls_1.memoryStateTime::ACT    1699244500                       # Time in different power states
system.mem_ctrls_1.memoryStateTime::ACT_PDN  11763109875                       # Time in different power states
system.pwrStateResidencyTicks::UNDEFINED  15267344125                       # Cumulative time (in ticks) in various power states
system.cpu0.branchPred.lookups                9184810                       # Number of BP lookups
system.cpu0.branchPred.condPredicted          9184810                       # Number of conditional branches predicted
system.cpu0.branchPred.condIncorrect           233087                       # Number of conditional branches incorrect
system.cpu0.branchPred.BTBLookups             7739786                       # Number of BTB lookups
system.cpu0.branchPred.BTBHits                      0                       # Number of BTB hits
system.cpu0.branchPred.BTBCorrect                   0                       # Number of correct BTB predictions (this stat may not work properly.
system.cpu0.branchPred.BTBHitPct             0.000000                       # BTB Hit Percentage
system.cpu0.branchPred.usedRAS                 729324                       # Number of times the RAS was used to get a target.
system.cpu0.branchPred.RASInCorrect              9096                       # Number of incorrect RAS predictions.
system.cpu0.branchPred.indirectLookups        7739786                       # Number of indirect predictor lookups.
system.cpu0.branchPred.indirectHits           4634312                       # Number of indirect target hits.
system.cpu0.branchPred.indirectMisses         3105474                       # Number of indirect misses.
system.cpu0.branchPredindirectMispredicted        44988                       # Number of mispredicted indirect branches.
system.cpu_voltage_domain.voltage                   1                       # Voltage in Volts
system.cpu_clk_domain.clock                       500                       # Clock period in ticks
system.cpu0.dtb.walker.pwrStateResidencyTicks::UNDEFINED  15267344125                       # Cumulative time (in ticks) in various power states
system.cpu0.dtb.rdAccesses                    9624800                       # TLB accesses on read requests
system.cpu0.dtb.wrAccesses                    5712096                       # TLB accesses on write requests
system.cpu0.dtb.rdMisses                        77657                       # TLB misses on read requests
system.cpu0.dtb.wrMisses                         9063                       # TLB misses on write requests
system.cpu0.apic_clk_domain.clock                8000                       # Clock period in ticks
system.cpu0.interrupts.pwrStateResidencyTicks::UNDEFINED  15267344125                       # Cumulative time (in ticks) in various power states
system.cpu0.itb.walker.pwrStateResidencyTicks::UNDEFINED  15267344125                       # Cumulative time (in ticks) in various power states
system.cpu0.itb.rdAccesses                          0                       # TLB accesses on read requests
system.cpu0.itb.wrAccesses                    7621690                       # TLB accesses on write requests
system.cpu0.itb.rdMisses                            0                       # TLB misses on read requests
system.cpu0.itb.wrMisses                            5                       # TLB misses on write requests
system.cpu0.workload.numSyscalls                    0                       # Number of system calls
system.cpu0.pwrStateResidencyTicks::ON    15267344125                       # Cumulative time (in ticks) in various power states
system.cpu0.numCycles                        30534689                       # number of cpu cycles simulated
system.cpu0.numWorkItemsStarted                     0                       # number of work items this cpu started
system.cpu0.numWorkItemsCompleted                   0                       # number of work items this cpu completed
system.cpu0.fetch.icacheStallCycles           7743340                       # Number of cycles fetch is stalled on an Icache miss
system.cpu0.fetch.Insts                      49417005                       # Number of instructions fetch has processed
system.cpu0.fetch.Branches                    9184810                       # Number of branches that fetch encountered
system.cpu0.fetch.predictedBranches           5363636                       # Number of branches that fetch has predicted taken
system.cpu0.fetch.Cycles                     22557177                       # Number of cycles fetch has run and was not squashing or blocked
system.cpu0.fetch.SquashCycles                 468290                       # Number of cycles fetch has spent squashing
system.cpu0.fetch.MiscStallCycles                   2                       # Number of cycles fetch has spent waiting on interrupts, or bad addresses, or out of MSHRs
system.cpu0.fetch.PendingTrapStallCycles           25                       # Number of stall cycles due to pending traps
system.cpu0.fetch.CacheLines                  7621685                       # Number of cache lines fetched
system.cpu0.fetch.IcacheSquashes                93375                       # Number of outstanding Icache misses that were squashed
system.cpu0.fetch.rateDist::samples          30534689                       # Number of instructions fetched each cycle (Total)
system.cpu0.fetch.rateDist::mean             3.129072                       # Number of instructions fetched each cycle (Total)
system.cpu0.fetch.rateDist::stdev            3.469289                       # Number of instructions fetched each cycle (Total)
system.cpu0.fetch.rateDist::underflows              0      0.00%      0.00% # Number of instructions fetched each cycle (Total)
system.cpu0.fetch.rateDist::0                15036525     49.24%     49.24% # Number of instructions fetched each cycle (Total)
system.cpu0.fetch.rateDist::1                  543679      1.78%     51.02% # Number of instructions fetched each cycle (Total)
system.cpu0.fetch.rateDist::2                  668157      2.19%     53.21% # Number of instructions fetched each cycle (Total)
system.cpu0.fetch.rateDist::3                 1817546      5.95%     59.17% # Number of instructions fetched each cycle (Total)
system.cpu0.fetch.rateDist::4                 1018158      3.33%     62.50% # Number of instructions fetched each cycle (Total)
system.cpu0.fetch.rateDist::5                 1081421      3.54%     66.04% # Number of instructions fetched each cycle (Total)
system.cpu0.fetch.rateDist::6                 1632216      5.35%     71.39% # Number of instructions fetched each cycle (Total)
system.cpu0.fetch.rateDist::7                  956319      3.13%     74.52% # Number of instructions fetched each cycle (Total)
system.cpu0.fetch.rateDist::8                 7780668     25.48%    100.00% # Number of instructions fetched each cycle (Total)
system.cpu0.fetch.rateDist::overflows               0      0.00%    100.00% # Number of instructions fetched each cycle (Total)
system.cpu0.fetch.rateDist::min_value               0                       # Number of instructions fetched each cycle (Total)
system.cpu0.fetch.rateDist::max_value               8                       # Number of instructions fetched each cycle (Total)
system.cpu0.fetch.rateDist::total            30534689                       # Number of instructions fetched each cycle (Total)
system.cpu0.fetch.branchRate                 0.300799                       # Number of branch fetches per cycle
system.cpu0.fetch.rate                       1.618389                       # Number of inst fetches per cycle
system.cpu0.decode.IdleCycles                 7426898                       # Number of cycles decode is idle
system.cpu0.decode.BlockedCycles              7984687                       # Number of cycles decode is blocked
system.cpu0.decode.RunCycles                 14538686                       # Number of cycles decode is running
system.cpu0.decode.UnblockCycles               350273                       # Number of cycles decode is unblocking
system.cpu0.decode.SquashCycles                234145                       # Number of cycles decode is squashing
system.cpu0.decode.DecodedInsts              93650563                       # Number of instructions handled by decode
system.cpu0.rename.SquashCycles                234145                       # Number of cycles rename is squashing
system.cpu0.rename.IdleCycles                 7605265                       # Number of cycles rename is idle
system.cpu0.rename.BlockCycles                4559488                       # Number of cycles rename is blocking
system.cpu0.rename.serializeStallCycles           642                       # count of cycles rename stalled for serializing inst
system.cpu0.rename.RunCycles                 14686154                       # Number of cycles rename is running
system.cpu0.rename.UnblockCycles              3448995                       # Number of cycles rename is unblocking
system.cpu0.rename.RenamedInsts              92907814                       # Number of instructions processed by rename
system.cpu0.rename.ROBFullEvents                67447                       # Number of times rename has blocked due to ROB full
system.cpu0.rename.IQFullEvents                167017                       # Number of times rename has blocked due to IQ full
system.cpu0.rename.LQFullEvents                 50203                       # Number of times rename has blocked due to LQ full
system.cpu0.rename.SQFullEvents               3127200                       # Number of times rename has blocked due to SQ full
system.cpu0.rename.RenamedOperands          113541183                       # Number of destination operands rename has renamed
system.cpu0.rename.RenameLookups            236198592                       # Number of register rename lookups that rename has made
system.cpu0.rename.int_rename_lookups       147281072                       # Number of integer rename lookups
system.cpu0.rename.CommittedMaps            100877027                       # Number of HB maps that are committed
system.cpu0.rename.UndoneMaps                12664049                       # Number of HB maps that are undone due to squashing
system.cpu0.rename.serializingInsts                53                       # count of serializing insts renamed
system.cpu0.rename.tempSerializingInsts            59                       # count of temporary serializing insts renamed
system.cpu0.rename.skidInsts                  1161611                       # count of insts added to the skid buffer
system.cpu0.memDep0.insertedLoads             9870499                       # Number of loads inserted to the mem dependence unit.
system.cpu0.memDep0.insertedStores            5986472                       # Number of stores inserted to the mem dependence unit.
system.cpu0.memDep0.conflictingLoads            37433                       # Number of conflicting loads.
system.cpu0.memDep0.conflictingStores          799170                       # Number of conflicting stores.
system.cpu0.iq.iqInstsAdded                  90356492                       # Number of instructions added to the IQ (excludes non-spec)
system.cpu0.iq.iqNonSpecInstsAdded               8712                       # Number of non-speculative instructions added to the IQ
system.cpu0.iq.iqInstsIssued                 87818174                       # Number of instructions issued
system.cpu0.iq.iqSquashedInstsIssued            36888                       # Number of squashed instructions issued
system.cpu0.iq.iqSquashedInstsExamined        7785640                       # Number of squashed instructions iterated over during squash; mainly for profiling
system.cpu0.iq.iqSquashedOperandsExamined     10720135                       # Number of squashed operands that are examined and possibly removed from graph
system.cpu0.iq.iqSquashedNonSpecRemoved          8712                       # Number of squashed non-spec instructions that were removed
system.cpu0.iq.issued_per_cycle::samples     30534689                       # Number of insts issued each cycle
system.cpu0.iq.issued_per_cycle::mean        2.876013                       # Number of insts issued each cycle
system.cpu0.iq.issued_per_cycle::stdev       2.418723                       # Number of insts issued each cycle
system.cpu0.iq.issued_per_cycle::underflows            0      0.00%      0.00% # Number of insts issued each cycle
system.cpu0.iq.issued_per_cycle::0            9045032     29.62%     29.62% # Number of insts issued each cycle
system.cpu0.iq.issued_per_cycle::1            1522830      4.99%     34.61% # Number of insts issued each cycle
system.cpu0.iq.issued_per_cycle::2            3747748     12.27%     46.88% # Number of insts issued each cycle
system.cpu0.iq.issued_per_cycle::3            3377441     11.06%     57.94% # Number of insts issued each cycle
system.cpu0.iq.issued_per_cycle::4            3455572     11.32%     69.26% # Number of insts issued each cycle
system.cpu0.iq.issued_per_cycle::5            4427464     14.50%     83.76% # Number of insts issued each cycle
system.cpu0.iq.issued_per_cycle::6            2688628      8.81%     92.57% # Number of insts issued each cycle
system.cpu0.iq.issued_per_cycle::7            1583643      5.19%     97.75% # Number of insts issued each cycle
system.cpu0.iq.issued_per_cycle::8             686331      2.25%    100.00% # Number of insts issued each cycle
system.cpu0.iq.issued_per_cycle::overflows            0      0.00%    100.00% # Number of insts issued each cycle
system.cpu0.iq.issued_per_cycle::min_value            0                       # Number of insts issued each cycle
system.cpu0.iq.issued_per_cycle::max_value            8                       # Number of insts issued each cycle
system.cpu0.iq.issued_per_cycle::total       30534689                       # Number of insts issued each cycle
system.cpu0.iq.fu_full::No_OpClass                  0      0.00%      0.00% # attempts to use FU when none available
system.cpu0.iq.fu_full::IntAlu                1147441     98.06%     98.06% # attempts to use FU when none available
system.cpu0.iq.fu_full::IntMult                     0      0.00%     98.06% # attempts to use FU when none available
system.cpu0.iq.fu_full::IntDiv                      0      0.00%     98.06% # attempts to use FU when none available
system.cpu0.iq.fu_full::FloatAdd                    0      0.00%     98.06% # attempts to use FU when none available
system.cpu0.iq.fu_full::FloatCmp                    0      0.00%     98.06% # attempts to use FU when none available
system.cpu0.iq.fu_full::FloatCvt                    0      0.00%     98.06% # attempts to use FU when none available
system.cpu0.iq.fu_full::FloatMult                   0      0.00%     98.06% # attempts to use FU when none available
system.cpu0.iq.fu_full::FloatMultAcc                0      0.00%     98.06% # attempts to use FU when none available
system.cpu0.iq.fu_full::FloatDiv                    0      0.00%     98.06% # attempts to use FU when none available
system.cpu0.iq.fu_full::FloatMisc                   0      0.00%     98.06% # attempts to use FU when none available
system.cpu0.iq.fu_full::FloatSqrt                   0      0.00%     98.06% # attempts to use FU when none available
system.cpu0.iq.fu_full::SimdAdd                     0      0.00%     98.06% # attempts to use FU when none available
system.cpu0.iq.fu_full::SimdAddAcc                  0      0.00%     98.06% # attempts to use FU when none available
system.cpu0.iq.fu_full::SimdAlu                     0      0.00%     98.06% # attempts to use FU when none available
system.cpu0.iq.fu_full::SimdCmp                     0      0.00%     98.06% # attempts to use FU when none available
system.cpu0.iq.fu_full::SimdCvt                     0      0.00%     98.06% # attempts to use FU when none available
system.cpu0.iq.fu_full::SimdMisc                    0      0.00%     98.06% # attempts to use FU when none available
system.cpu0.iq.fu_full::SimdMult                    0      0.00%     98.06% # attempts to use FU when none available
system.cpu0.iq.fu_full::SimdMultAcc                 0      0.00%     98.06% # attempts to use FU when none available
system.cpu0.iq.fu_full::SimdShift                   0      0.00%     98.06% # attempts to use FU when none available
system.cpu0.iq.fu_full::SimdShiftAcc                0      0.00%     98.06% # attempts to use FU when none available
system.cpu0.iq.fu_full::SimdSqrt                    0      0.00%     98.06% # attempts to use FU when none available
system.cpu0.iq.fu_full::SimdFloatAdd                0      0.00%     98.06% # attempts to use FU when none available
system.cpu0.iq.fu_full::SimdFloatAlu                0      0.00%     98.06% # attempts to use FU when none available
system.cpu0.iq.fu_full::SimdFloatCmp                0      0.00%     98.06% # attempts to use FU when none available
system.cpu0.iq.fu_full::SimdFloatCvt                0      0.00%     98.06% # attempts to use FU when none available
system.cpu0.iq.fu_full::SimdFloatDiv                0      0.00%     98.06% # attempts to use FU when none available
system.cpu0.iq.fu_full::SimdFloatMisc               0      0.00%     98.06% # attempts to use FU when none available
system.cpu0.iq.fu_full::SimdFloatMult               0      0.00%     98.06% # attempts to use FU when none available
system.cpu0.iq.fu_full::SimdFloatMultAcc            0      0.00%     98.06% # attempts to use FU when none available
system.cpu0.iq.fu_full::SimdFloatSqrt               0      0.00%     98.06% # attempts to use FU when none available
system.cpu0.iq.fu_full::MemRead                 18765      1.60%     99.67% # attempts to use FU when none available
system.cpu0.iq.fu_full::MemWrite                 3917      0.33%    100.00% # attempts to use FU when none available
system.cpu0.iq.fu_full::FloatMemRead                0      0.00%    100.00% # attempts to use FU when none available
system.cpu0.iq.fu_full::FloatMemWrite               0      0.00%    100.00% # attempts to use FU when none available
system.cpu0.iq.fu_full::IprAccess                   0      0.00%    100.00% # attempts to use FU when none available
system.cpu0.iq.fu_full::InstPrefetch                0      0.00%    100.00% # attempts to use FU when none available
system.cpu0.iq.FU_type_0::No_OpClass            99736      0.11%      0.11% # Type of FU issued
system.cpu0.iq.FU_type_0::IntAlu             71601847     81.53%     81.65% # Type of FU issued
system.cpu0.iq.FU_type_0::IntMult               74191      0.08%     81.73% # Type of FU issued
system.cpu0.iq.FU_type_0::IntDiv               591075      0.67%     82.41% # Type of FU issued
system.cpu0.iq.FU_type_0::FloatAdd                  0      0.00%     82.41% # Type of FU issued
system.cpu0.iq.FU_type_0::FloatCmp                  0      0.00%     82.41% # Type of FU issued
system.cpu0.iq.FU_type_0::FloatCvt                  0      0.00%     82.41% # Type of FU issued
system.cpu0.iq.FU_type_0::FloatMult                 0      0.00%     82.41% # Type of FU issued
system.cpu0.iq.FU_type_0::FloatMultAcc              0      0.00%     82.41% # Type of FU issued
system.cpu0.iq.FU_type_0::FloatDiv                  0      0.00%     82.41% # Type of FU issued
system.cpu0.iq.FU_type_0::FloatMisc                 0      0.00%     82.41% # Type of FU issued
system.cpu0.iq.FU_type_0::FloatSqrt                 0      0.00%     82.41% # Type of FU issued
system.cpu0.iq.FU_type_0::SimdAdd                   0      0.00%     82.41% # Type of FU issued
system.cpu0.iq.FU_type_0::SimdAddAcc                0      0.00%     82.41% # Type of FU issued
system.cpu0.iq.FU_type_0::SimdAlu                   0      0.00%     82.41% # Type of FU issued
system.cpu0.iq.FU_type_0::SimdCmp                   0      0.00%     82.41% # Type of FU issued
system.cpu0.iq.FU_type_0::SimdCvt                   0      0.00%     82.41% # Type of FU issued
system.cpu0.iq.FU_type_0::SimdMisc                  0      0.00%     82.41% # Type of FU issued
system.cpu0.iq.FU_type_0::SimdMult                  0      0.00%     82.41% # Type of FU issued
system.cpu0.iq.FU_type_0::SimdMultAcc               0      0.00%     82.41% # Type of FU issued
system.cpu0.iq.FU_type_0::SimdShift                 0      0.00%     82.41% # Type of FU issued
system.cpu0.iq.FU_type_0::SimdShiftAcc              0      0.00%     82.41% # Type of FU issued
system.cpu0.iq.FU_type_0::SimdSqrt                  0      0.00%     82.41% # Type of FU issued
system.cpu0.iq.FU_type_0::SimdFloatAdd              0      0.00%     82.41% # Type of FU issued
system.cpu0.iq.FU_type_0::SimdFloatAlu              0      0.00%     82.41% # Type of FU issued
system.cpu0.iq.FU_type_0::SimdFloatCmp              0      0.00%     82.41% # Type of FU issued
system.cpu0.iq.FU_type_0::SimdFloatCvt              0      0.00%     82.41% # Type of FU issued
system.cpu0.iq.FU_type_0::SimdFloatDiv              0      0.00%     82.41% # Type of FU issued
system.cpu0.iq.FU_type_0::SimdFloatMisc             0      0.00%     82.41% # Type of FU issued
system.cpu0.iq.FU_type_0::SimdFloatMult             0      0.00%     82.41% # Type of FU issued
system.cpu0.iq.FU_type_0::SimdFloatMultAcc            0      0.00%     82.41% # Type of FU issued
system.cpu0.iq.FU_type_0::SimdFloatSqrt             0      0.00%     82.41% # Type of FU issued
system.cpu0.iq.FU_type_0::MemRead             9689034     11.03%     93.44% # Type of FU issued
system.cpu0.iq.FU_type_0::MemWrite            5762291      6.56%    100.00% # Type of FU issued
system.cpu0.iq.FU_type_0::FloatMemRead              0      0.00%    100.00% # Type of FU issued
system.cpu0.iq.FU_type_0::FloatMemWrite             0      0.00%    100.00% # Type of FU issued
system.cpu0.iq.FU_type_0::IprAccess                 0      0.00%    100.00% # Type of FU issued
system.cpu0.iq.FU_type_0::InstPrefetch              0      0.00%    100.00% # Type of FU issued
system.cpu0.iq.FU_type_0::total              87818174                       # Type of FU issued
system.cpu0.iq.rate                          2.876013                       # Inst issue rate
system.cpu0.iq.fu_busy_cnt                    1170123                       # FU busy when requested
system.cpu0.iq.fu_busy_rate                  0.013324                       # FU busy rate (busy events/executed inst)
system.cpu0.iq.int_inst_queue_reads         207378047                       # Number of integer instruction queue reads
system.cpu0.iq.int_inst_queue_writes         98151905                       # Number of integer instruction queue writes
system.cpu0.iq.int_inst_queue_wakeup_accesses     87269248                       # Number of integer instruction queue wakeup accesses
system.cpu0.iq.fp_inst_queue_reads                  0                       # Number of floating instruction queue reads
system.cpu0.iq.fp_inst_queue_writes                 0                       # Number of floating instruction queue writes
system.cpu0.iq.fp_inst_queue_wakeup_accesses            0                       # Number of floating instruction queue wakeup accesses
system.cpu0.iq.vec_inst_queue_reads                 0                       # Number of vector instruction queue reads
system.cpu0.iq.vec_inst_queue_writes                0                       # Number of vector instruction queue writes
system.cpu0.iq.vec_inst_queue_wakeup_accesses            0                       # Number of vector instruction queue wakeup accesses
system.cpu0.iq.int_alu_accesses              88888561                       # Number of integer alu accesses
system.cpu0.iq.fp_alu_accesses                      0                       # Number of floating point alu accesses
system.cpu0.iq.vec_alu_accesses                     0                       # Number of vector alu accesses
system.cpu0.iew.lsq.thread0.forwLoads         1049197                       # Number of loads that had data forwarded from stores
system.cpu0.iew.lsq.thread0.invAddrLoads            0                       # Number of loads ignored due to an invalid address
system.cpu0.iew.lsq.thread0.squashedLoads       787072                       # Number of loads squashed
system.cpu0.iew.lsq.thread0.ignoredResponses         1846                       # Number of memory responses ignored because the instruction is squashed
system.cpu0.iew.lsq.thread0.memOrderViolation         1061                       # Number of memory ordering violations
system.cpu0.iew.lsq.thread0.squashedStores       541611                       # Number of stores squashed
system.cpu0.iew.lsq.thread0.invAddrSwpfs            0                       # Number of software prefetches ignored due to an invalid address
system.cpu0.iew.lsq.thread0.blockedLoads            0                       # Number of blocked loads due to partial load-store forwarding
system.cpu0.iew.lsq.thread0.rescheduledLoads            8                       # Number of loads that were rescheduled
system.cpu0.iew.lsq.thread0.cacheBlocked            6                       # Number of times an access to memory failed due to the cache being blocked
system.cpu0.iew.iewIdleCycles                       0                       # Number of cycles IEW is idle
system.cpu0.iew.iewSquashCycles                234145                       # Number of cycles IEW is squashing
system.cpu0.iew.iewBlockCycles                1772158                       # Number of cycles IEW is blocking
system.cpu0.iew.iewUnblockCycles                50094                       # Number of cycles IEW is unblocking
system.cpu0.iew.iewDispatchedInsts           90365204                       # Number of instructions dispatched to IQ
system.cpu0.iew.iewDispSquashedInsts              398                       # Number of squashed instructions skipped by dispatch
system.cpu0.iew.iewDispLoadInsts              9870499                       # Number of dispatched load instructions
system.cpu0.iew.iewDispStoreInsts             5986472                       # Number of dispatched store instructions
system.cpu0.iew.iewDispNonSpecInsts              3196                       # Number of dispatched non-speculative instructions
system.cpu0.iew.iewIQFullEvents                  8578                       # Number of times the IQ has become full, causing a stall
system.cpu0.iew.iewLSQFullEvents                38919                       # Number of times the LSQ has become full, causing a stall
system.cpu0.iew.memOrderViolationEvents          1061                       # Number of memory order violations
system.cpu0.iew.predictedTakenIncorrect        151475                       # Number of branches that were predicted taken incorrectly
system.cpu0.iew.predictedNotTakenIncorrect       119635                       # Number of branches that were predicted not taken incorrectly
system.cpu0.iew.branchMispredicts              271110                       # Number of branch mispredicts detected at execute
system.cpu0.iew.iewExecutedInsts             87496365                       # Number of executed instructions
system.cpu0.iew.iewExecLoadInsts              9624349                       # Number of load instructions executed
system.cpu0.iew.iewExecSquashedInsts           321808                       # Number of squashed instructions skipped in execute
system.cpu0.iew.exec_swp                            0                       # number of swp insts executed
system.cpu0.iew.exec_nop                            0                       # number of nop insts executed
system.cpu0.iew.exec_refs                    15336444                       # number of memory reference insts executed
system.cpu0.iew.exec_branches                 8324086                       # Number of branches executed
system.cpu0.iew.exec_stores                   5712095                       # Number of stores executed
system.cpu0.iew.exec_rate                    2.865474                       # Inst execution rate
system.cpu0.iew.wb_sent                      87433699                       # cumulative count of insts sent to commit
system.cpu0.iew.wb_count                     87269248                       # cumulative count of insts written-back
system.cpu0.iew.wb_producers                 66695319                       # num instructions producing a value
system.cpu0.iew.wb_consumers                114978892                       # num instructions consuming a value
system.cpu0.iew.wb_rate                      2.858036                       # insts written-back per cycle
system.cpu0.iew.wb_fanout                    0.580066                       # average fanout of values written-back
system.cpu0.commit.commitSquashedInsts        7785708                       # The number of squashed insts skipped by commit
system.cpu0.commit.branchMispredicts           233090                       # The number of times a branch was mispredicted
system.cpu0.commit.committed_per_cycle::samples     29432441                       # Number of insts commited each cycle
system.cpu0.commit.committed_per_cycle::mean     2.805730                       # Number of insts commited each cycle
system.cpu0.commit.committed_per_cycle::stdev     2.975690                       # Number of insts commited each cycle
system.cpu0.commit.committed_per_cycle::underflows            0      0.00%      0.00% # Number of insts commited each cycle
system.cpu0.commit.committed_per_cycle::0     10087163     34.27%     34.27% # Number of insts commited each cycle
system.cpu0.commit.committed_per_cycle::1      4016298     13.65%     47.92% # Number of insts commited each cycle
system.cpu0.commit.committed_per_cycle::2      2318079      7.88%     55.79% # Number of insts commited each cycle
system.cpu0.commit.committed_per_cycle::3      3671913     12.48%     68.27% # Number of insts commited each cycle
system.cpu0.commit.committed_per_cycle::4      1156563      3.93%     72.20% # Number of insts commited each cycle
system.cpu0.commit.committed_per_cycle::5      1644298      5.59%     77.79% # Number of insts commited each cycle
system.cpu0.commit.committed_per_cycle::6       772767      2.63%     80.41% # Number of insts commited each cycle
system.cpu0.commit.committed_per_cycle::7       695923      2.36%     82.78% # Number of insts commited each cycle
system.cpu0.commit.committed_per_cycle::8      5069437     17.22%    100.00% # Number of insts commited each cycle
system.cpu0.commit.committed_per_cycle::overflows            0      0.00%    100.00% # Number of insts commited each cycle
system.cpu0.commit.committed_per_cycle::min_value            0                       # Number of insts commited each cycle
system.cpu0.commit.committed_per_cycle::max_value            8                       # Number of insts commited each cycle
system.cpu0.commit.committed_per_cycle::total     29432441                       # Number of insts commited each cycle
system.cpu0.commit.committedInsts            42464273                       # Number of instructions committed
system.cpu0.commit.committedOps              82579496                       # Number of ops (including micro ops) committed
system.cpu0.commit.swp_count                        0                       # Number of s/w prefetches committed
system.cpu0.commit.refs                      14528288                       # Number of memory references committed
system.cpu0.commit.loads                      9083426                       # Number of loads committed
system.cpu0.commit.membars                          0                       # Number of memory barriers committed
system.cpu0.commit.branches                   7957204                       # Number of branches committed
system.cpu0.commit.vec_insts                        0                       # Number of committed Vector instructions.
system.cpu0.commit.fp_insts                         0                       # Number of committed floating point instructions.
system.cpu0.commit.int_insts                 82496975                       # Number of committed integer instructions.
system.cpu0.commit.function_calls              635238                       # Number of function calls committed.
system.cpu0.commit.op_class_0::No_OpClass        82521      0.10%      0.10% # Class of committed instruction
system.cpu0.commit.op_class_0::IntAlu        67356674     81.57%     81.67% # Class of committed instruction
system.cpu0.commit.op_class_0::IntMult          71377      0.09%     81.75% # Class of committed instruction
system.cpu0.commit.op_class_0::IntDiv          540636      0.65%     82.41% # Class of committed instruction
system.cpu0.commit.op_class_0::FloatAdd             0      0.00%     82.41% # Class of committed instruction
system.cpu0.commit.op_class_0::FloatCmp             0      0.00%     82.41% # Class of committed instruction
system.cpu0.commit.op_class_0::FloatCvt             0      0.00%     82.41% # Class of committed instruction
system.cpu0.commit.op_class_0::FloatMult            0      0.00%     82.41% # Class of committed instruction
system.cpu0.commit.op_class_0::FloatMultAcc            0      0.00%     82.41% # Class of committed instruction
system.cpu0.commit.op_class_0::FloatDiv             0      0.00%     82.41% # Class of committed instruction
system.cpu0.commit.op_class_0::FloatMisc            0      0.00%     82.41% # Class of committed instruction
system.cpu0.commit.op_class_0::FloatSqrt            0      0.00%     82.41% # Class of committed instruction
system.cpu0.commit.op_class_0::SimdAdd              0      0.00%     82.41% # Class of committed instruction
system.cpu0.commit.op_class_0::SimdAddAcc            0      0.00%     82.41% # Class of committed instruction
system.cpu0.commit.op_class_0::SimdAlu              0      0.00%     82.41% # Class of committed instruction
system.cpu0.commit.op_class_0::SimdCmp              0      0.00%     82.41% # Class of committed instruction
system.cpu0.commit.op_class_0::SimdCvt              0      0.00%     82.41% # Class of committed instruction
system.cpu0.commit.op_class_0::SimdMisc             0      0.00%     82.41% # Class of committed instruction
system.cpu0.commit.op_class_0::SimdMult             0      0.00%     82.41% # Class of committed instruction
system.cpu0.commit.op_class_0::SimdMultAcc            0      0.00%     82.41% # Class of committed instruction
system.cpu0.commit.op_class_0::SimdShift            0      0.00%     82.41% # Class of committed instruction
system.cpu0.commit.op_class_0::SimdShiftAcc            0      0.00%     82.41% # Class of committed instruction
system.cpu0.commit.op_class_0::SimdSqrt             0      0.00%     82.41% # Class of committed instruction
system.cpu0.commit.op_class_0::SimdFloatAdd            0      0.00%     82.41% # Class of committed instruction
system.cpu0.commit.op_class_0::SimdFloatAlu            0      0.00%     82.41% # Class of committed instruction
system.cpu0.commit.op_class_0::SimdFloatCmp            0      0.00%     82.41% # Class of committed instruction
system.cpu0.commit.op_class_0::SimdFloatCvt            0      0.00%     82.41% # Class of committed instruction
system.cpu0.commit.op_class_0::SimdFloatDiv            0      0.00%     82.41% # Class of committed instruction
system.cpu0.commit.op_class_0::SimdFloatMisc            0      0.00%     82.41% # Class of committed instruction
system.cpu0.commit.op_class_0::SimdFloatMult            0      0.00%     82.41% # Class of committed instruction
system.cpu0.commit.op_class_0::SimdFloatMultAcc            0      0.00%     82.41% # Class of committed instruction
system.cpu0.commit.op_class_0::SimdFloatSqrt            0      0.00%     82.41% # Class of committed instruction
system.cpu0.commit.op_class_0::MemRead        9083426     11.00%     93.41% # Class of committed instruction
system.cpu0.commit.op_class_0::MemWrite       5444862      6.59%    100.00% # Class of committed instruction
system.cpu0.commit.op_class_0::FloatMemRead            0      0.00%    100.00% # Class of committed instruction
system.cpu0.commit.op_class_0::FloatMemWrite            0      0.00%    100.00% # Class of committed instruction
system.cpu0.commit.op_class_0::IprAccess            0      0.00%    100.00% # Class of committed instruction
system.cpu0.commit.op_class_0::InstPrefetch            0      0.00%    100.00% # Class of committed instruction
system.cpu0.commit.op_class_0::total         82579496                       # Class of committed instruction
system.cpu0.commit.bw_lim_events              5069437                       # number cycles where commit BW limit reached
system.cpu0.rob.rob_reads                   114728208                       # The number of ROB reads
system.cpu0.rob.rob_writes                  181836182                       # The number of ROB writes
system.cpu0.committedInsts                   42464273                       # Number of Instructions Simulated
system.cpu0.committedOps                     82579496                       # Number of Ops (including micro ops) Simulated
system.cpu0.cpi                              0.719068                       # CPI: Cycles Per Instruction
system.cpu0.cpi_total                        0.719068                       # CPI: Total CPI of All Threads
system.cpu0.ipc                              1.390690                       # IPC: Instructions Per Cycle
system.cpu0.ipc_total                        1.390690                       # IPC: Total IPC of All Threads
system.cpu0.int_regfile_reads               137141222                       # number of integer regfile reads
system.cpu0.int_regfile_writes               74574294                       # number of integer regfile writes
system.cpu0.cc_regfile_reads                 50311218                       # number of cc regfile reads
system.cpu0.cc_regfile_writes                31932187                       # number of cc regfile writes
system.cpu0.misc_regfile_reads               32204194                       # number of misc regfile reads
system.cpu0.dcache.tags.pwrStateResidencyTicks::UNDEFINED  15267344125                       # Cumulative time (in ticks) in various power states
system.cpu0.dcache.tags.replacements            67937                       # number of replacements
system.cpu0.dcache.tags.tagsinuse                1024                       # Cycle average of tags in use
system.cpu0.dcache.tags.total_refs            2062082                       # Total number of references to valid blocks.
system.cpu0.dcache.tags.sampled_refs            67937                       # Sample count of references to valid blocks.
system.cpu0.dcache.tags.avg_refs            30.352856                       # Average number of references to valid blocks.
system.cpu0.dcache.tags.warmup_cycle                0                       # Cycle when the warmup percentage was hit.
system.cpu0.dcache.tags.occ_blocks::cpu0.data         1024                       # Average occupied blocks per requestor
system.cpu0.dcache.tags.occ_percent::cpu0.data            1                       # Average percentage of cache occupancy
system.cpu0.dcache.tags.occ_percent::total            1                       # Average percentage of cache occupancy
system.cpu0.dcache.tags.occ_task_id_blocks::1024         1024                       # Occupied blocks per task id
system.cpu0.dcache.tags.age_task_id_blocks_1024::0           34                       # Occupied blocks per task id
system.cpu0.dcache.tags.age_task_id_blocks_1024::1          305                       # Occupied blocks per task id
system.cpu0.dcache.tags.age_task_id_blocks_1024::2          662                       # Occupied blocks per task id
system.cpu0.dcache.tags.age_task_id_blocks_1024::3            3                       # Occupied blocks per task id
system.cpu0.dcache.tags.age_task_id_blocks_1024::4           20                       # Occupied blocks per task id
system.cpu0.dcache.tags.occ_task_id_percent::1024            1                       # Percentage of cache occupancy per task id
system.cpu0.dcache.tags.tag_accesses         55916653                       # Number of tag accesses
system.cpu0.dcache.tags.data_accesses        55916653                       # Number of data accesses
system.cpu0.dcache.pwrStateResidencyTicks::UNDEFINED  15267344125                       # Cumulative time (in ticks) in various power states
system.cpu0.dcache.ReadReq_hits::cpu0.data      8393352                       # number of ReadReq hits
system.cpu0.dcache.ReadReq_hits::total        8393352                       # number of ReadReq hits
system.cpu0.dcache.WriteReq_hits::cpu0.data      5418463                       # number of WriteReq hits
system.cpu0.dcache.WriteReq_hits::total       5418463                       # number of WriteReq hits
system.cpu0.dcache.demand_hits::cpu0.data     13811815                       # number of demand (read+write) hits
system.cpu0.dcache.demand_hits::total        13811815                       # number of demand (read+write) hits
system.cpu0.dcache.overall_hits::cpu0.data     13811815                       # number of overall hits
system.cpu0.dcache.overall_hits::total       13811815                       # number of overall hits
system.cpu0.dcache.ReadReq_misses::cpu0.data       123965                       # number of ReadReq misses
system.cpu0.dcache.ReadReq_misses::total       123965                       # number of ReadReq misses
system.cpu0.dcache.WriteReq_misses::cpu0.data        26399                       # number of WriteReq misses
system.cpu0.dcache.WriteReq_misses::total        26399                       # number of WriteReq misses
system.cpu0.dcache.demand_misses::cpu0.data       150364                       # number of demand (read+write) misses
system.cpu0.dcache.demand_misses::total        150364                       # number of demand (read+write) misses
system.cpu0.dcache.overall_misses::cpu0.data       150364                       # number of overall misses
system.cpu0.dcache.overall_misses::total       150364                       # number of overall misses
system.cpu0.dcache.ReadReq_miss_latency::cpu0.data   8495974000                       # number of ReadReq miss cycles
system.cpu0.dcache.ReadReq_miss_latency::total   8495974000                       # number of ReadReq miss cycles
system.cpu0.dcache.WriteReq_miss_latency::cpu0.data   2318062500                       # number of WriteReq miss cycles
system.cpu0.dcache.WriteReq_miss_latency::total   2318062500                       # number of WriteReq miss cycles
system.cpu0.dcache.demand_miss_latency::cpu0.data  10814036500                       # number of demand (read+write) miss cycles
system.cpu0.dcache.demand_miss_latency::total  10814036500                       # number of demand (read+write) miss cycles
system.cpu0.dcache.overall_miss_latency::cpu0.data  10814036500                       # number of overall miss cycles
system.cpu0.dcache.overall_miss_latency::total  10814036500                       # number of overall miss cycles
system.cpu0.dcache.ReadReq_accesses::cpu0.data      8517317                       # number of ReadReq accesses(hits+misses)
system.cpu0.dcache.ReadReq_accesses::total      8517317                       # number of ReadReq accesses(hits+misses)
system.cpu0.dcache.WriteReq_accesses::cpu0.data      5444862                       # number of WriteReq accesses(hits+misses)
system.cpu0.dcache.WriteReq_accesses::total      5444862                       # number of WriteReq accesses(hits+misses)
system.cpu0.dcache.demand_accesses::cpu0.data     13962179                       # number of demand (read+write) accesses
system.cpu0.dcache.demand_accesses::total     13962179                       # number of demand (read+write) accesses
[...]
system.l2.ReadExReq_miss_rate::cpu0.data     0.980627                       # miss rate for ReadExReq accesses
system.l2.ReadExReq_miss_rate::total         0.980627                       # miss rate for ReadExReq accesses
system.l2.ReadCleanReq_miss_rate::cpu0.inst            1                       # miss rate for ReadCleanReq accesses
system.l2.ReadCleanReq_miss_rate::total             1                       # miss rate for ReadCleanReq accesses
system.l2.ReadSharedReq_miss_rate::cpu0.data     0.656102                       # miss rate for ReadSharedReq accesses
system.l2.ReadSharedReq_miss_rate::total     0.656102                       # miss rate for ReadSharedReq accesses
system.l2.demand_miss_rate::cpu0.inst               1                       # miss rate for demand accesses
system.l2.demand_miss_rate::cpu0.data        0.780620                       # miss rate for demand accesses
system.l2.demand_miss_rate::total            0.780640                       # miss rate for demand accesses
system.l2.overall_miss_rate::cpu0.inst              1                       # miss rate for overall accesses
system.l2.overall_miss_rate::cpu0.data       0.780620                       # miss rate for overall accesses
system.l2.overall_miss_rate::total           0.780640                       # miss rate for overall accesses
system.l2.ReadExReq_avg_miss_latency::cpu0.data 87027.521321                       # average ReadExReq miss latency
system.l2.ReadExReq_avg_miss_latency::total 87027.521321                       # average ReadExReq miss latency
system.l2.ReadCleanReq_avg_miss_latency::cpu0.inst        90250                       # average ReadCleanReq miss latency
system.l2.ReadCleanReq_avg_miss_latency::total        90250                       # average ReadCleanReq miss latency
system.l2.ReadSharedReq_avg_miss_latency::cpu0.data 96348.039751                       # average ReadSharedReq miss latency
system.l2.ReadSharedReq_avg_miss_latency::total 96348.039751                       # average ReadSharedReq miss latency
system.l2.demand_avg_miss_latency::cpu0.inst        90250                       # average overall miss latency
system.l2.demand_avg_miss_latency::cpu0.data 91855.533347                       # average overall miss latency
system.l2.demand_avg_miss_latency::total 91855.351722                       # average overall miss latency
system.l2.overall_avg_miss_latency::cpu0.inst        90250                       # average overall miss latency
system.l2.overall_avg_miss_latency::cpu0.data 91855.533347                       # average overall miss latency
system.l2.overall_avg_miss_latency::total 91855.351722                       # average overall miss latency
system.l2.blocked_cycles::no_mshrs                  0                       # number of cycles access was blocked
system.l2.blocked_cycles::no_targets                0                       # number of cycles access was blocked
system.l2.blocked::no_mshrs                         0                       # number of cycles access was blocked
system.l2.blocked::no_targets                       0                       # number of cycles access was blocked
system.l2.avg_blocked_cycles::no_mshrs            nan                       # average number of cycles each access was blocked
system.l2.avg_blocked_cycles::no_targets          nan                       # average number of cycles each access was blocked
system.l2.writebacks::writebacks                25536                       # number of writebacks
system.l2.writebacks::total                     25536                       # number of writebacks
system.l2.ReadExReq_mshr_misses::cpu0.data        25562                       # number of ReadExReq MSHR misses
system.l2.ReadExReq_mshr_misses::total          25562                       # number of ReadExReq MSHR misses
system.l2.ReadCleanReq_mshr_misses::cpu0.inst            6                       # number of ReadCleanReq MSHR misses
system.l2.ReadCleanReq_mshr_misses::total            6                       # number of ReadCleanReq MSHR misses
system.l2.ReadSharedReq_mshr_misses::cpu0.data        27471                       # number of ReadSharedReq MSHR misses
system.l2.ReadSharedReq_mshr_misses::total        27471                       # number of ReadSharedReq MSHR misses
system.l2.demand_mshr_misses::cpu0.inst             6                       # number of demand (read+write) MSHR misses
system.l2.demand_mshr_misses::cpu0.data         53033                       # number of demand (read+write) MSHR misses
system.l2.demand_mshr_misses::total             53039                       # number of demand (read+write) MSHR misses
system.l2.overall_mshr_misses::cpu0.inst            6                       # number of overall MSHR misses
system.l2.overall_mshr_misses::cpu0.data        53033                       # number of overall MSHR misses
system.l2.overall_mshr_misses::total            53039                       # number of overall MSHR misses
system.l2.ReadExReq_mshr_miss_latency::cpu0.data   1968977500                       # number of ReadExReq MSHR miss cycles
system.l2.ReadExReq_mshr_miss_latency::total   1968977500                       # number of ReadExReq MSHR miss cycles
system.l2.ReadCleanReq_mshr_miss_latency::cpu0.inst       481500                       # number of ReadCleanReq MSHR miss cycles
system.l2.ReadCleanReq_mshr_miss_latency::total       481500                       # number of ReadCleanReq MSHR miss cycles
system.l2.ReadSharedReq_mshr_miss_latency::cpu0.data   2372067000                       # number of ReadSharedReq MSHR miss cycles
system.l2.ReadSharedReq_mshr_miss_latency::total   2372067000                       # number of ReadSharedReq MSHR miss cycles
system.l2.demand_mshr_miss_latency::cpu0.inst       481500                       # number of demand (read+write) MSHR miss cycles
system.l2.demand_mshr_miss_latency::cpu0.data   4341044500                       # number of demand (read+write) MSHR miss cycles
system.l2.demand_mshr_miss_latency::total   4341526000                       # number of demand (read+write) MSHR miss cycles
system.l2.overall_mshr_miss_latency::cpu0.inst       481500                       # number of overall MSHR miss cycles
system.l2.overall_mshr_miss_latency::cpu0.data   4341044500                       # number of overall MSHR miss cycles
system.l2.overall_mshr_miss_latency::total   4341526000                       # number of overall MSHR miss cycles
system.l2.ReadExReq_mshr_miss_rate::cpu0.data     0.980627                       # mshr miss rate for ReadExReq accesses
system.l2.ReadExReq_mshr_miss_rate::total     0.980627                       # mshr miss rate for ReadExReq accesses
system.l2.ReadCleanReq_mshr_miss_rate::cpu0.inst            1                       # mshr miss rate for ReadCleanReq accesses
system.l2.ReadCleanReq_mshr_miss_rate::total            1                       # mshr miss rate for ReadCleanReq accesses
system.l2.ReadSharedReq_mshr_miss_rate::cpu0.data     0.656102                       # mshr miss rate for ReadSharedReq accesses
system.l2.ReadSharedReq_mshr_miss_rate::total     0.656102                       # mshr miss rate for ReadSharedReq accesses
system.l2.demand_mshr_miss_rate::cpu0.inst            1                       # mshr miss rate for demand accesses
system.l2.demand_mshr_miss_rate::cpu0.data     0.780620                       # mshr miss rate for demand accesses
system.l2.demand_mshr_miss_rate::total       0.780640                       # mshr miss rate for demand accesses
system.l2.overall_mshr_miss_rate::cpu0.inst            1                       # mshr miss rate for overall accesses
system.l2.overall_mshr_miss_rate::cpu0.data     0.780620                       # mshr miss rate for overall accesses
system.l2.overall_mshr_miss_rate::total      0.780640                       # mshr miss rate for overall accesses
system.l2.ReadExReq_avg_mshr_miss_latency::cpu0.data 77027.521321                       # average ReadExReq mshr miss latency
system.l2.ReadExReq_avg_mshr_miss_latency::total 77027.521321                       # average ReadExReq mshr miss latency
system.l2.ReadCleanReq_avg_mshr_miss_latency::cpu0.inst        80250                       # average ReadCleanReq mshr miss latency
system.l2.ReadCleanReq_avg_mshr_miss_latency::total        80250                       # average ReadCleanReq mshr miss latency
system.l2.ReadSharedReq_avg_mshr_miss_latency::cpu0.data 86348.039751                       # average ReadSharedReq mshr miss latency
system.l2.ReadSharedReq_avg_mshr_miss_latency::total 86348.039751                       # average ReadSharedReq mshr miss latency
system.l2.demand_avg_mshr_miss_latency::cpu0.inst        80250                       # average overall mshr miss latency
system.l2.demand_avg_mshr_miss_latency::cpu0.data 81855.533347                       # average overall mshr miss latency
system.l2.demand_avg_mshr_miss_latency::total 81855.351722                       # average overall mshr miss latency
system.l2.overall_avg_mshr_miss_latency::cpu0.inst        80250                       # average overall mshr miss latency
system.l2.overall_avg_mshr_miss_latency::cpu0.data 81855.533347                       # average overall mshr miss latency
system.l2.overall_avg_mshr_miss_latency::total 81855.351722                       # average overall mshr miss latency
system.membus.snoop_filter.tot_requests        106050                       # Total number of requests made to the snoop filter.
system.membus.snoop_filter.hit_single_requests        53011                       # Number of requests hitting in the snoop filter with a single holder of the requested data.
system.membus.snoop_filter.hit_multi_requests            0                       # Number of requests hitting in the snoop filter with multiple (>1) holders of the requested data.
system.membus.snoop_filter.tot_snoops               0                       # Total number of snoops made to the snoop filter.
system.membus.snoop_filter.hit_single_snoops            0                       # Number of snoops hitting in the snoop filter with a single holder of the requested data.
system.membus.snoop_filter.hit_multi_snoops            0                       # Number of snoops hitting in the snoop filter with multiple (>1) holders of the requested data.
system.membus.pwrStateResidencyTicks::UNDEFINED  15267344125                       # Cumulative time (in ticks) in various power states
system.membus.trans_dist::ReadResp              27477                       # Transaction distribution
system.membus.trans_dist::WritebackDirty        25536                       # Transaction distribution
system.membus.trans_dist::CleanEvict            27475                       # Transaction distribution
system.membus.trans_dist::ReadExReq             25562                       # Transaction distribution
system.membus.trans_dist::ReadExResp            25562                       # Transaction distribution
system.membus.trans_dist::ReadSharedReq         27477                       # Transaction distribution
system.membus.pkt_count_system.l2.mem_side::system.mem_ctrls.port       159089                       # Packet count per connected master and slave (bytes)
system.membus.pkt_count_system.l2.mem_side::total       159089                       # Packet count per connected master and slave (bytes)
system.membus.pkt_count::total                 159089                       # Packet count per connected master and slave (bytes)
system.membus.pkt_size_system.l2.mem_side::system.mem_ctrls.port      5028800                       # Cumulative packet size per connected master and slave (bytes)
system.membus.pkt_size_system.l2.mem_side::total      5028800                       # Cumulative packet size per connected master and slave (bytes)
system.membus.pkt_size::total                 5028800                       # Cumulative packet size per connected master and slave (bytes)
system.membus.snoops                                0                       # Total snoops (count)
system.membus.snoopTraffic                          0                       # Total snoop traffic (bytes)
system.membus.snoop_fanout::samples             53039                       # Request fanout histogram
system.membus.snoop_fanout::mean                    0                       # Request fanout histogram
system.membus.snoop_fanout::stdev                   0                       # Request fanout histogram
system.membus.snoop_fanout::underflows              0      0.00%      0.00% # Request fanout histogram
system.membus.snoop_fanout::0                   53039    100.00%    100.00% # Request fanout histogram
system.membus.snoop_fanout::1                       0      0.00%    100.00% # Request fanout histogram
system.membus.snoop_fanout::overflows               0      0.00%    100.00% # Request fanout histogram
system.membus.snoop_fanout::min_value               0                       # Request fanout histogram
system.membus.snoop_fanout::max_value               0                       # Request fanout histogram
system.membus.snoop_fanout::total               53039                       # Request fanout histogram
system.membus.reqLayer8.occupancy           222164000                       # Layer occupancy (ticks)
system.membus.reqLayer8.utilization               1.5                       # Layer utilization (%)
system.membus.respLayer1.occupancy          286047000                       # Layer occupancy (ticks)
system.membus.respLayer1.utilization              1.9                       # Layer utilization (%)
system.tol2bus.snoop_filter.tot_requests       135886                       # Total number of requests made to the snoop filter.
system.tol2bus.snoop_filter.hit_single_requests        67943                       # Number of requests hitting in the snoop filter with a single holder of the requested data.
system.tol2bus.snoop_filter.hit_multi_requests            0                       # Number of requests hitting in the snoop filter with multiple (>1) holders of the requested data.
system.tol2bus.snoop_filter.tot_snoops             34                       # Total number of snoops made to the snoop filter.
system.tol2bus.snoop_filter.hit_single_snoops           34                       # Number of snoops hitting in the snoop filter with a single holder of the requested data.
system.tol2bus.snoop_filter.hit_multi_snoops            0                       # Number of snoops hitting in the snoop filter with multiple (>1) holders of the requested data.
system.tol2bus.pwrStateResidencyTicks::UNDEFINED  15267344125                       # Cumulative time (in ticks) in various power states
system.tol2bus.trans_dist::ReadResp             41876                       # Transaction distribution
system.tol2bus.trans_dist::WritebackDirty        74923                       # Transaction distribution
system.tol2bus.trans_dist::WritebackClean            6                       # Transaction distribution
system.tol2bus.trans_dist::CleanEvict           46059                       # Transaction distribution
system.tol2bus.trans_dist::ReadExReq            26067                       # Transaction distribution
system.tol2bus.trans_dist::ReadExResp           26067                       # Transaction distribution
system.tol2bus.trans_dist::ReadCleanReq             6                       # Transaction distribution
system.tol2bus.trans_dist::ReadSharedReq        41870                       # Transaction distribution
system.tol2bus.pkt_count_system.cpu0.icache.mem_side::system.l2.cpu_side           18                       # Packet count per connected master and slave (bytes)
system.tol2bus.pkt_count_system.cpu0.dcache.mem_side::system.l2.cpu_side       203811                       # Packet count per connected master and slave (bytes)
system.tol2bus.pkt_count::total                203829                       # Packet count per connected master and slave (bytes)
system.tol2bus.pkt_size_system.cpu0.icache.mem_side::system.l2.cpu_side          768                       # Cumulative packet size per connected master and slave (bytes)
system.tol2bus.pkt_size_system.cpu0.dcache.mem_side::system.l2.cpu_side      7508736                       # Cumulative packet size per connected master and slave (bytes)
system.tol2bus.pkt_size::total                7509504                       # Cumulative packet size per connected master and slave (bytes)
system.tol2bus.snoops                           53045                       # Total snoops (count)
system.tol2bus.snoopTraffic                   1634304                       # Total snoop traffic (bytes)
system.tol2bus.snoop_fanout::samples           120988                       # Request fanout histogram
system.tol2bus.snoop_fanout::mean            0.000281                       # Request fanout histogram
system.tol2bus.snoop_fanout::stdev           0.016761                       # Request fanout histogram
system.tol2bus.snoop_fanout::underflows             0      0.00%      0.00% # Request fanout histogram
system.tol2bus.snoop_fanout::0                 120954     99.97%     99.97% # Request fanout histogram
system.tol2bus.snoop_fanout::1                     34      0.03%    100.00% # Request fanout histogram
system.tol2bus.snoop_fanout::2                      0      0.00%    100.00% # Request fanout histogram
system.tol2bus.snoop_fanout::3                      0      0.00%    100.00% # Request fanout histogram
system.tol2bus.snoop_fanout::4                      0      0.00%    100.00% # Request fanout histogram
system.tol2bus.snoop_fanout::5                      0      0.00%    100.00% # Request fanout histogram
system.tol2bus.snoop_fanout::6                      0      0.00%    100.00% # Request fanout histogram
system.tol2bus.snoop_fanout::7                      0      0.00%    100.00% # Request fanout histogram
system.tol2bus.snoop_fanout::8                      0      0.00%    100.00% # Request fanout histogram
system.tol2bus.snoop_fanout::9                      0      0.00%    100.00% # Request fanout histogram
system.tol2bus.snoop_fanout::10                     0      0.00%    100.00% # Request fanout histogram
system.tol2bus.snoop_fanout::11                     0      0.00%    100.00% # Request fanout histogram
system.tol2bus.snoop_fanout::12                     0      0.00%    100.00% # Request fanout histogram
system.tol2bus.snoop_fanout::13                     0      0.00%    100.00% # Request fanout histogram
system.tol2bus.snoop_fanout::14                     0      0.00%    100.00% # Request fanout histogram
system.tol2bus.snoop_fanout::15                     0      0.00%    100.00% # Request fanout histogram
system.tol2bus.snoop_fanout::16                     0      0.00%    100.00% # Request fanout histogram
system.tol2bus.snoop_fanout::overflows              0      0.00%    100.00% # Request fanout histogram
system.tol2bus.snoop_fanout::min_value              0                       # Request fanout histogram
system.tol2bus.snoop_fanout::max_value              1                       # Request fanout histogram
system.tol2bus.snoop_fanout::total             120988                       # Request fanout histogram
system.tol2bus.reqLayer0.occupancy          117336000                       # Layer occupancy (ticks)
system.tol2bus.reqLayer0.utilization              0.8                       # Layer utilization (%)
system.tol2bus.respLayer0.occupancy              9000                       # Layer occupancy (ticks)
system.tol2bus.respLayer0.utilization             0.0                       # Layer utilization (%)
system.tol2bus.respLayer1.occupancy         101905500                       # Layer occupancy (ticks)
system.tol2bus.respLayer1.utilization             0.7                       # Layer utilization (%)

---------- End Simulation Statistics   ----------
