
---------- Begin Simulation Statistics ----------
sim_seconds                                  0.015267                       # Number of seconds simulated
sim_ticks                                 15267344125                       # Number of ticks simulated
final_tick                               1099248777000                       # Number of ticks from beginning of simulation (restored from checkpoints and never reset)
sim_freq                                 1000000000000                       # Frequency of simulated ticks
host_inst_rate                                8187149                       # Simulator instruction rate (inst/s)
host_op_rate                                 15107493                       # Simulator op (including micro ops) rate (op/s)
host_tick_rate                               51446159                       # Simulator tick rate (ticks/s)
host_mem_usage                                2330132                       # Number of bytes of host memory used
host_seconds                                   296.76                       # Real time elapsed on the host
sim_insts                                  2429647032                       # Number of instructions simulated
sim_ops                                    4483353019                       # Number of ops (including micro ops) simulated
system.voltage_domain.voltage                       1                       # Voltage in Volts
system.clk_domain.clock                          1000                       # Clock period in ticks
system.mem_ctrls.pwrStateResidencyTicks::UNDEFINED  15267344125                       # Cumulative time (in ticks) in various power states
system.mem_ctrls.bytes_read::cpu0.data         916224                       # Number of bytes read from this memory
system.mem_ctrls.bytes_read::total             916224                       # Number of bytes read from this memory
system.mem_ctrls.bytes_written::writebacks       864000                       # Number of bytes written to this memory
system.mem_ctrls.bytes_written::total          864000                       # Number of bytes written to this memory
system.mem_ctrls.num_reads::cpu0.data           14316                       # Number of read requests responded to by this memory
system.mem_ctrls.num_reads::total               14316                       # Number of read requests responded to by this memory
system.mem_ctrls.num_writes::writebacks         13500                       # Number of write requests responded to by this memory
system.mem_ctrls.num_writes::total              13500                       # Number of write requests responded to by this memory
system.mem_ctrls.bw_read::cpu0.data          60012009                       # Total read bandwidth from this memory (bytes/s)
system.mem_ctrls.bw_read::total              60012009                       # Total read bandwidth from this memory (bytes/s)
system.mem_ctrls.bw_write::writebacks        56591375                       # Write bandwidth from this memory (bytes/s)
system.mem_ctrls.bw_write::total             56591375                       # Write bandwidth from this memory (bytes/s)
system.mem_ctrls.bw_total::writebacks        56591375                       # Total bandwidth to/from this memory (bytes/s)
system.mem_ctrls.bw_total::cpu0.data         60012009                       # Total bandwidth to/from this memory (bytes/s)
system.mem_ctrls.bw_total::total            116603385                       # Total bandwidth to/from this memory (bytes/s)
system.mem_ctrls.readReqs                       14317                       # Number of read requests accepted
system.mem_ctrls.writeReqs                      13500                       # Number of write requests accepted
system.mem_ctrls.readBursts                     14317                       # Number of DRAM read bursts, including those serviced by the write queue
system.mem_ctrls.writeBursts                    13500                       # Number of DRAM write bursts, including those merged in the write queue
system.mem_ctrls.bytesReadDRAM                 916288                       # Total number of bytes read from DRAM
system.mem_ctrls.bytesReadWrQ                       0                       # Total number of bytes read from write queue
system.mem_ctrls.bytesWritten                  864128                       # Total number of bytes written to DRAM
system.mem_ctrls.bytesReadSys                  916288                       # Total read bytes from the system interface side
system.mem_ctrls.bytesWrittenSys               864000                       # Total written bytes from the system interface side
system.mem_ctrls.servicedByWrQ                      0                       # Number of DRAM read bursts serviced by the write queue
system.mem_ctrls.mergedWrBursts                     0                       # Number of DRAM write bursts merged with an existing one
system.mem_ctrls.neitherReadNorWriteReqs            0                       # Number of requests that are neither read nor write
system.mem_ctrls.perBankRdBursts::0               919                       # Per bank write bursts
system.mem_ctrls.perBankRdBursts::1               894                       # Per bank write bursts
system.mem_ctrls.perBankRdBursts::2               768                       # Per bank write bursts
system.mem_ctrls.perBankRdBursts::3               768                       # Per bank write bursts
system.mem_ctrls.perBankRdBursts::4               768                       # Per bank write bursts
system.mem_ctrls.perBankRdBursts::5               791                       # Per bank write bursts
system.mem_ctrls.perBankRdBursts::6               841                       # Per bank write bursts
system.mem_ctrls.perBankRdBursts::7               896                       # Per bank write bursts
system.mem_ctrls.perBankRdBursts::8              1015                       # Per bank write bursts
system.mem_ctrls.perBankRdBursts::9              1024                       # Per bank write bursts
system.mem_ctrls.perBankRdBursts::10             1024                       # Per bank write bursts
system.mem_ctrls.perBankRdBursts::11             1047                       # Per bank write bursts
system.mem_ctrls.perBankRdBursts::12             1024                       # Per bank write bursts
system.mem_ctrls.perBankRdBursts::13              891                       # Per bank write bursts
system.mem_ctrls.perBankRdBursts::14              768                       # Per bank write bursts
system.mem_ctrls.perBankRdBursts::15              879                       # Per bank write bursts
system.mem_ctrls.perBankWrBursts::0               919                       # Per bank write bursts
system.mem_ctrls.perBankWrBursts::1               892                       # Per bank write bursts
system.mem_ctrls.perBankWrBursts::2               768                       # Per bank write bursts
system.mem_ctrls.perBankWrBursts::3               768                       # Per bank write bursts
system.mem_ctrls.perBankWrBursts::4               667                       # Per bank write bursts
system.mem_ctrls.perBankWrBursts::5               644                       # Per bank write bursts
system.mem_ctrls.perBankWrBursts::6               733                       # Per bank write bursts
system.mem_ctrls.perBankWrBursts::7               768                       # Per bank write bursts
system.mem_ctrls.perBankWrBursts::8               886                       # Per bank write bursts
system.mem_ctrls.perBankWrBursts::9               896                       # Per bank write bursts
system.mem_ctrls.perBankWrBursts::10              991                       # Per bank write bursts
system.mem_ctrls.perBankWrBursts::11             1047                       # Per bank write bursts
system.mem_ctrls.perBankWrBursts::12             1024                       # Per bank write bursts
system.mem_ctrls.perBankWrBursts::13              874                       # Per bank write bursts
system.mem_ctrls.perBankWrBursts::14              768                       # Per bank write bursts
system.mem_ctrls.perBankWrBursts::15              857                       # Per bank write bursts
system.mem_ctrls.numRdRetry                         0                       # Number of times read queue was full causing retry
system.mem_ctrls.numWrRetry                         0                       # Number of times write queue was full causing retry
system.mem_ctrls.totGap                   15267529500                       # Total gap between requests
system.mem_ctrls.readPktSize::0                     0                       # Read request sizes (log2)
system.mem_ctrls.readPktSize::1                     0                       # Read request sizes (log2)
system.mem_ctrls.readPktSize::2                     0                       # Read request sizes (log2)
system.mem_ctrls.readPktSize::3                     0                       # Read request sizes (log2)
system.mem_ctrls.readPktSize::4                     0                       # Read request sizes (log2)
system.mem_ctrls.readPktSize::5                     0                       # Read request sizes (log2)
system.mem_ctrls.readPktSize::6                 14317                       # Read request sizes (log2)
system.mem_ctrls.writePktSize::0                    0                       # Write request sizes (log2)
system.mem_ctrls.writePktSize::1                    0                       # Write request sizes (log2)
system.mem_ctrls.writePktSize::2                    0                       # Write request sizes (log2)
system.mem_ctrls.writePktSize::3                    0                       # Write request sizes (log2)
system.mem_ctrls.writePktSize::4                    0                       # Write request sizes (log2)
system.mem_ctrls.writePktSize::5                    0                       # Write request sizes (log2)
system.mem_ctrls.writePktSize::6                13500                       # Write request sizes (log2)
system.mem_ctrls.rdQLenPdf::0                   14317                       # What read queue length does an incoming req see
system.mem_ctrls.rdQLenPdf::1                       0                       # What read queue length does an incoming req see
system.mem_ctrls.rdQLenPdf::2                       0                       # What read queue length does an incoming req see
system.mem_ctrls.rdQLenPdf::3                       0                       # What read queue length does an incoming req see
system.mem_ctrls.rdQLenPdf::4                       0                       # What read queue length does an incoming req see
system.mem_ctrls.rdQLenPdf::5                       0                       # What read queue length does an incoming req see
system.mem_ctrls.rdQLenPdf::6                       0                       # What read queue length does an incoming req see
system.mem_ctrls.rdQLenPdf::7                       0                       # What read queue length does an incoming req see
system.mem_ctrls.rdQLenPdf::8                       0                       # What read queue length does an incoming req see
system.mem_ctrls.rdQLenPdf::9                       0                       # What read queue length does an incoming req see
system.mem_ctrls.rdQLenPdf::10                      0                       # What read queue length does an incoming req see
system.mem_ctrls.rdQLenPdf::11                      0                       # What read queue length does an incoming req see
system.mem_ctrls.rdQLenPdf::12                      0                       # What read queue length does an incoming req see
system.mem_ctrls.rdQLenPdf::13                      0                       # What read queue length does an incoming req see
system.mem_ctrls.rdQLenPdf::14                      0                       # What read queue length does an incoming req see
system.mem_ctrls.rdQLenPdf::15                      0                       # What read queue length does an incoming req see
system.mem_ctrls.rdQLenPdf::16                      0                       # What read queue length does an incoming req see
system.mem_ctrls.rdQLenPdf::17                      0                       # What read queue length does an incoming req see
system.mem_ctrls.rdQLenPdf::18                      0                       # What read queue length does an incoming req see
system.mem_ctrls.rdQLenPdf::19                      0                       # What read queue length does an incoming req see
system.mem_ctrls.rdQLenPdf::20                      0                       # What read queue length does an incoming req see
system.mem_ctrls.rdQLenPdf::21                      0                       # What read queue length does an incoming req see
system.mem_ctrls.rdQLenPdf::22                      0                       # What read queue length does an incoming req see
system.mem_ctrls.rdQLenPdf::23                      0                       # What read queue length does an incoming req see
system.mem_ctrls.rdQLenPdf::24                      0                       # What read queue length does an incoming req see
system.mem_ctrls.rdQLenPdf::25                      0                       # What read queue length does an incoming req see
system.mem_ctrls.rdQLenPdf::26                      0                       # What read queue length does an incoming req see
system.mem_ctrls.rdQLenPdf::27                      0                       # What read queue length does an incoming req see
system.mem_ctrls.rdQLenPdf::28                      0                       # What read queue length does an incoming req see
system.mem_ctrls.rdQLenPdf::29                      0                       # What read queue length does an incoming req see
system.mem_ctrls.rdQLenPdf::30                      0                       # What read queue length does an incoming req see
system.mem_ctrls.rdQLenPdf::31                      0                       # What read queue length does an incoming req see
system.mem_ctrls.wrQLenPdf::0                       0                       # What write queue length does an incoming req see
system.mem_ctrls.wrQLenPdf::1                       0                       # What write queue length does an incoming req see
system.mem_ctrls.wrQLenPdf::2                       0                       # What write queue length does an incoming req see
system.mem_ctrls.wrQLenPdf::3                       0                       # What write queue length does an incoming req see
system.mem_ctrls.wrQLenPdf::4                       0                       # What write queue length does an incoming req see
system.mem_ctrls.wrQLenPdf::5                       0                       # What write queue length does an incoming req see
system.mem_ctrls.wrQLenPdf::6                       0                       # What write queue length does an incoming req see
system.mem_ctrls.wrQLenPdf::7                       0                       # What write queue length does an incoming req see
system.mem_ctrls.wrQLenPdf::8                       0                       # What write queue length does an incoming req see
system.mem_ctrls.wrQLenPdf::9                       0                       # What write queue length does an incoming req see
system.mem_ctrls.wrQLenPdf::10                      0                       # What write queue length does an incoming req see
system.mem_ctrls.wrQLenPdf::11                      0                       # What write queue length does an incoming req see
system.mem_ctrls.wrQLenPdf::12                      0                       # What write queue length does an incoming req see
system.mem_ctrls.wrQLenPdf::13                      0                       # What write queue length does an incoming req see
system.mem_ctrls.wrQLenPdf::14                      0                       # What write queue length does an incoming req see
system.mem_ctrls.wrQLenPdf::15                    735                       # What write queue length does an incoming req see
system.mem_ctrls.wrQLenPdf::16                    735                       # What write queue length does an incoming req see
system.mem_ctrls.wrQLenPdf::17                    752                       # What write queue length does an incoming req see
system.mem_ctrls.wrQLenPdf::18                    751                       # What write queue length does an incoming req see
system.mem_ctrls.wrQLenPdf::19                    751                       # What write queue length does an incoming req see
system.mem_ctrls.wrQLenPdf::20                    752                       # What write queue length does an incoming req see
system.mem_ctrls.wrQLenPdf::21                    752                       # What write queue length does an incoming req see
system.mem_ctrls.wrQLenPdf::22                    752                       # What write queue length does an incoming req see
system.mem_ctrls.wrQLenPdf::23                    752                       # What write queue length does an incoming req see
system.mem_ctrls.wrQLenPdf::24                    752                       # What write queue length does an incoming req see
system.mem_ctrls.wrQLenPdf::25                    752                       # What write queue length does an incoming req see
system.mem_ctrls.wrQLenPdf::26                    752                       # What write queue length does an incoming req see
system.mem_ctrls.wrQLenPdf::27                    752                       # What write queue length does an incoming req see
system.mem_ctrls.wrQLenPdf::28                    752                       # What write queue length does an incoming req see
system.mem_ctrls.wrQLenPdf::29                    752                       # What write queue length does an incoming req see
system.mem_ctrls.wrQLenPdf::30                    752                       # What write queue length does an incoming req see
system.mem_ctrls.wrQLenPdf::31                    752                       # What write queue length does an incoming req see
system.mem_ctrls.wrQLenPdf::32                    752                       # What write queue length does an incoming req see
system.mem_ctrls.wrQLenPdf::33                      0                       # What write queue length does an incoming req see
system.mem_ctrls.wrQLenPdf::34                      0                       # What write queue length does an incoming req see
system.mem_ctrls.wrQLenPdf::35                      0                       # What write queue length does an incoming req see
system.mem_ctrls.wrQLenPdf::36                      0                       # What write queue length does an incoming req see
system.mem_ctrls.wrQLenPdf::37                      0                       # What write queue length does an incoming req see
system.mem_ctrls.wrQLenPdf::38                      0                       # What write queue length does an incoming req see
system.mem_ctrls.wrQLenPdf::39                      0                       # What write queue length does an incoming req see
system.mem_ctrls.wrQLenPdf::40                      0                       # What write queue length does an incoming req see
system.mem_ctrls.wrQLenPdf::41                      0                       # What write queue length does an incoming req see
system.mem_ctrls.wrQLenPdf::42                      0                       # What write queue length does an incoming req see
system.mem_ctrls.wrQLenPdf::43                      0                       # What write queue length does an incoming req see
system.mem_ctrls.wrQLenPdf::44                      0                       # What write queue length does an incoming req see
system.mem_ctrls.wrQLenPdf::45                      0                       # What write queue length does an incoming req see
system.mem_ctrls.wrQLenPdf::46                      0                       # What write queue length does an incoming req see
system.mem_ctrls.wrQLenPdf::47                      0                       # What write queue length does an incoming req see
system.mem_ctrls.wrQLenPdf::48                      0                       # What write queue length does an incoming req see
system.mem_ctrls.wrQLenPdf::49                      0                       # What write queue length does an incoming req see
system.mem_ctrls.wrQLenPdf::50                      0                       # What write queue length does an incoming req see
system.mem_ctrls.wrQLenPdf::51                      0                       # What write queue length does an incoming req see
system.mem_ctrls.wrQLenPdf::52                      0                       # What write queue length does an incoming req see
system.mem_ctrls.wrQLenPdf::53                      0                       # What write queue length does an incoming req see
system.mem_ctrls.wrQLenPdf::54                      0                       # What write queue length does an incoming req see
system.mem_ctrls.wrQLenPdf::55                      0                       # What write queue length does an incoming req see
system.mem_ctrls.wrQLenPdf::56                      0                       # What write queue length does an incoming req see
system.mem_ctrls.wrQLenPdf::57                      0                       # What write queue length does an incoming req see
system.mem_ctrls.wrQLenPdf::58                      0                       # What write queue length does an incoming req see
system.mem_ctrls.wrQLenPdf::59                      0                       # What write queue length does an incoming req see
system.mem_ctrls.wrQLenPdf::60                      0                       # What write queue length does an incoming req see
system.mem_ctrls.wrQLenPdf::61                      0                       # What write queue length does an incoming req see
system.mem_ctrls.wrQLenPdf::62                      0                       # What write queue length does an incoming req see
system.mem_ctrls.wrQLenPdf::63                      0                       # What write queue length does an incoming req see
system.mem_ctrls.bytesPerActivate::samples         6016                       # Bytes accessed per row activation
system.mem_ctrls.bytesPerActivate::mean    295.872340                       # Bytes accessed per row activation
system.mem_ctrls.bytesPerActivate::gmean   183.128415                       # Bytes accessed per row activation
system.mem_ctrls.bytesPerActivate::stdev   291.886047                       # Bytes accessed per row activation
system.mem_ctrls.bytesPerActivate::0-127         2428     40.36%     40.36% # Bytes accessed per row activation
system.mem_ctrls.bytesPerActivate::128-255          781     12.98%     53.34% # Bytes accessed per row activation
system.mem_ctrls.bytesPerActivate::256-383          597      9.92%     63.26% # Bytes accessed per row activation
system.mem_ctrls.bytesPerActivate::384-511         1452     24.14%     87.40% # Bytes accessed per row activation
system.mem_ctrls.bytesPerActivate::512-639           32      0.53%     87.93% # Bytes accessed per row activation
system.mem_ctrls.bytesPerActivate::640-767           45      0.75%     88.68% # Bytes accessed per row activation
system.mem_ctrls.bytesPerActivate::768-895           66      1.10%     89.78% # Bytes accessed per row activation
system.mem_ctrls.bytesPerActivate::896-1023           94      1.56%     91.34% # Bytes accessed per row activation
system.mem_ctrls.bytesPerActivate::1024-1151          521      8.66%    100.00% # Bytes accessed per row activation
system.mem_ctrls.bytesPerActivate::total         6016                       # Bytes accessed per row activation
system.mem_ctrls.rdPerTurnAround::samples          752                       # Reads before turning the bus around for writes
system.mem_ctrls.rdPerTurnAround::mean      19.039894                       # Reads before turning the bus around for writes
system.mem_ctrls.rdPerTurnAround::gmean     18.375885                       # Reads before turning the bus around for writes
system.mem_ctrls.rdPerTurnAround::stdev     11.194849                       # Reads before turning the bus around for writes
system.mem_ctrls.rdPerTurnAround::16-23           732     97.34%     97.34% # Reads before turning the bus around for writes
system.mem_ctrls.rdPerTurnAround::24-31            12      1.60%     98.94% # Reads before turning the bus around for writes
system.mem_ctrls.rdPerTurnAround::32-39             1      0.13%     99.07% # Reads before turning the bus around for writes
system.mem_ctrls.rdPerTurnAround::40-47             1      0.13%     99.20% # Reads before turning the bus around for writes
system.mem_ctrls.rdPerTurnAround::56-63             1      0.13%     99.34% # Reads before turning the bus around for writes
system.mem_ctrls.rdPerTurnAround::64-71             1      0.13%     99.47% # Reads before turning the bus around for writes
system.mem_ctrls.rdPerTurnAround::112-119            1      0.13%     99.60% # Reads before turning the bus around for writes
system.mem_ctrls.rdPerTurnAround::152-159            1      0.13%     99.73% # Reads before turning the bus around for writes
system.mem_ctrls.rdPerTurnAround::176-183            1      0.13%     99.87% # Reads before turning the bus around for writes
system.mem_ctrls.rdPerTurnAround::200-207            1      0.13%    100.00% # Reads before turning the bus around for writes
system.mem_ctrls.rdPerTurnAround::total           752                       # Reads before turning the bus around for writes
system.mem_ctrls.wrPerTurnAround::samples          752                       # Writes before turning the bus around for reads
system.mem_ctrls.wrPerTurnAround::mean      17.954787                       # Writes before turning the bus around for reads
system.mem_ctrls.wrPerTurnAround::gmean     17.952136                       # Writes before turning the bus around for reads
system.mem_ctrls.wrPerTurnAround::stdev      0.297488                       # Writes before turning the bus around for reads
system.mem_ctrls.wrPerTurnAround::16               17      2.26%      2.26% # Writes before turning the bus around for reads
system.mem_ctrls.wrPerTurnAround::18              735     97.74%    100.00% # Writes before turning the bus around for reads
system.mem_ctrls.wrPerTurnAround::total           752                       # Writes before turning the bus around for reads
system.mem_ctrls.totQLat                    362523750                       # Total ticks spent queuing
system.mem_ctrls.totMemAccLat               630967500                       # Total ticks spent from burst creation until serviced by the DRAM
system.mem_ctrls.totBusLat                   71585000                       # Total ticks spent in databus transfers
system.mem_ctrls.avgQLat                     25321.21                       # Average queueing delay per DRAM burst
system.mem_ctrls.avgBusLat                    5000.00                       # Average bus latency per DRAM burst
system.mem_ctrls.avgMemAccLat                44071.21                       # Average memory access latency per DRAM burst
system.mem_ctrls.avgRdBW                        60.02                       # Average DRAM read bandwidth in MiByte/s
system.mem_ctrls.avgWrBW                        56.60                       # Average achieved write bandwidth in MiByte/s
system.mem_ctrls.avgRdBWSys                     60.02                       # Average system read bandwidth in MiByte/s
system.mem_ctrls.avgWrBWSys                     56.59                       # Average system write bandwidth in MiByte/s
system.mem_ctrls.peakBW                      12800.00                       # Theoretical peak bandwidth in MiByte/s
system.mem_ctrls.busUtil                         0.91                       # Data bus utilization in percentage
system.mem_ctrls.busUtilRead                     0.47                       # Data bus utilization in percentage for reads
system.mem_ctrls.busUtilWrite                    0.44                       # Data bus utilization in percentage for writes
system.mem_ctrls.avgRdQLen                       1.00                       # Average read queue length when enqueuing
system.mem_ctrls.avgWrQLen                      24.60                       # Average write queue length when enqueuing
system.mem_ctrls.readRowHits                    10384                       # Number of row buffer hits during reads
system.mem_ctrls.writeRowHits                   11418                       # Number of row buffer hits during writes
system.mem_ctrls.readRowHitRate                 72.53                       # Row buffer hit rate for reads
system.mem_ctrls.writeRowHitRate                84.58                       # Row buffer hit rate for writes
system.mem_ctrls.avgGap                     548856.08                       # Average gap between requests
system.mem_ctrls.pageHitRate                    78.38                       # Row buffer hit rate, read and write combined
system.mem_ctrls_0.actEnergy                 17778600                       # Energy for activate commands per rank (pJ)
system.mem_ctrls_0.preEnergy                  9453345                       # Energy for precharge commands per rank (pJ)
system.mem_ctrls_0.readEnergy                47445300                       # Energy for read commands per rank (pJ)
system.mem_ctrls_0.writeEnergy               32149980                       # Energy for write commands per rank (pJ)
system.mem_ctrls_0.refreshEnergy         1102664160.000000                       # Energy for refresh commands per rank (pJ)
system.mem_ctrls_0.actBackEnergy            616802700                       # Energy for active background per rank (pJ)
system.mem_ctrls_0.preBackEnergy             56979840                       # Energy for precharge background per rank (pJ)
system.mem_ctrls_0.actPowerDownEnergy      3189482310                       # Energy for active power-down per rank (pJ)
system.mem_ctrls_0.prePowerDownEnergy      1188421920                       # Energy for precharge power-down per rank (pJ)
system.mem_ctrls_0.selfRefreshEnergy       1063613220                       # Energy for self refresh per rank (pJ)
system.mem_ctrls_0.totalEnergy             7325221785                       # Total energy per rank (pJ)
system.mem_ctrls_0.averagePower            479.796730                       # Core power per rank (mW)
system.mem_ctrls_0.totalIdleTime          13761536375                       # Total Idle time Per DRAM Rank
system.mem_ctrls_0.memoryStateTime::IDLE     99949750                       # Time in different power states
system.mem_ctrls_0.memoryStateTime::REF     468426000                       # Time in different power states
system.mem_ctrls_0.memoryStateTime::SREF   3676025750                       # Time in different power states
system.mem_ctrls_0.memoryStateTime::PRE_PDN   3094977750                       # Time in different power states
system.mem_ctrls_0.memoryStateTime::ACT     933604000                       # Time in different power states
system.mem_ctrls_0.memoryStateTime::ACT_PDN   6994360875                       # Time in different power states
system.mem_ctrls_1.actEnergy                 25182780                       # Energy for activate commands per rank (pJ)
system.mem_ctrls_1.preEnergy                 13377375                       # Energy for precharge commands per rank (pJ)
system.mem_ctrls_1.readEnergy                54770940                       # Energy for read commands per rank (pJ)
system.mem_ctrls_1.writeEnergy               38330460                       # Energy for write commands per rank (pJ)
system.mem_ctrls_1.refreshEnergy         1293202560.000000                       # Energy for refresh commands per rank (pJ)
system.mem_ctrls_1.actBackEnergy            814867440                       # Energy for active background per rank (pJ)
system.mem_ctrls_1.preBackEnergy             61948800                       # Energy for precharge background per rank (pJ)
system.mem_ctrls_1.actPowerDownEnergy      3830582970                       # Energy for active power-down per rank (pJ)
system.mem_ctrls_1.prePowerDownEnergy      1413206400                       # Energy for precharge power-down per rank (pJ)
system.mem_ctrls_1.selfRefreshEnergy        476694600                       # Energy for self refresh per rank (pJ)
system.mem_ctrls_1.totalEnergy             8022164325                       # Total energy per rank (pJ)
system.mem_ctrls_1.averagePower            525.445962                       # Core power per rank (mW)
system.mem_ctrls_1.totalIdleTime          13319040875                       # Total Idle time Per DRAM Rank
system.mem_ctrls_1.memoryStateTime::IDLE    105881250                       # Time in different power states
system.mem_ctrls_1.memoryStateTime::REF     548996000                       # Time in different power states
system.mem_ctrls_1.memoryStateTime::SREF   1238404750                       # Time in different power states
system.mem_ctrls_1.memoryStateTime::PRE_PDN   3680395375                       # Time in different power states
system.mem_ctrls_1.memoryStateTime::ACT    1293426000                       # Time in different power states
system.mem_ctrls_1.memoryStateTime::ACT_PDN   8400240750                       # Time in different power states
system.pwrStateResidencyTicks::UNDEFINED  15267344125                       # Cumulative time (in ticks) in various power states
system.cpu0.branchPred.lookups                5265722                       # Number of BP lookups
system.cpu0.branchPred.condPredicted          5265722                       # Number of conditional branches predicted
system.cpu0.branchPred.condIncorrect           104664                       # Number of conditional branches incorrect
system.cpu0.branchPred.BTBLookups             4102553                       # Number of BTB lookups
system.cpu0.branchPred.BTBHits                      0                       # Number of BTB hits
system.cpu0.branchPred.BTBCorrect                   0                       # Number of correct BTB predictions (this stat may not work properly.
system.cpu0.branchPred.BTBHitPct             0.000000                       # BTB Hit Percentage
system.cpu0.branchPred.usedRAS                 733558                       # Number of times the RAS was used to get a target.
system.cpu0.branchPred.RASInCorrect               766                       # Number of incorrect RAS predictions.
system.cpu0.branchPred.indirectLookups        4102553                       # Number of indirect predictor lookups.
system.cpu0.branchPred.indirectHits           2545757                       # Number of indirect target hits.
system.cpu0.branchPred.indirectMisses         1556796                       # Number of indirect misses.
system.cpu0.branchPredindirectMispredicted          616                       # Number of mispredicted indirect branches.
system.cpu_voltage_domain.voltage                   1                       # Voltage in Volts
system.cpu_clk_domain.clock                       500                       # Clock period in ticks
system.cpu0.dtb.walker.pwrStateResidencyTicks::UNDEFINED  15267344125                       # Cumulative time (in ticks) in various power states
system.cpu0.dtb.rdAccesses                    8921340                       # TLB accesses on read requests
system.cpu0.dtb.wrAccesses                    2116484                       # TLB accesses on write requests
system.cpu0.dtb.rdMisses                         1661                       # TLB misses on read requests
system.cpu0.dtb.wrMisses                            0                       # TLB misses on write requests
system.cpu0.apic_clk_domain.clock                8000                       # Clock period in ticks
system.cpu0.interrupts.pwrStateResidencyTicks::UNDEFINED  15267344125                       # Cumulative time (in ticks) in various power states
system.cpu0.itb.walker.pwrStateResidencyTicks::UNDEFINED  15267344125                       # Cumulative time (in ticks) in various power states
system.cpu0.itb.rdAccesses                          0                       # TLB accesses on read requests
system.cpu0.itb.wrAccesses                    6244454                       # TLB accesses on write requests
system.cpu0.itb.rdMisses                            0                       # TLB misses on read requests
system.cpu0.itb.wrMisses                           25                       # TLB misses on write requests
system.cpu0.workload.numSyscalls                    0                       # Number of system calls
system.cpu0.pwrStateResidencyTicks::ON    15267344125                       # Cumulative time (in ticks) in various power states
system.cpu0.numCycles                        30534689                       # number of cpu cycles simulated
system.cpu0.numWorkItemsStarted                     0                       # number of work items this cpu started
system.cpu0.numWorkItemsCompleted                   0                       # number of work items this cpu completed
system.cpu0.fetch.icacheStallCycles           6305154                       # Number of cycles fetch is stalled on an Icache miss
system.cpu0.fetch.Insts                      46155931                       # Number of instructions fetch has processed
system.cpu0.fetch.Branches                    5265722                       # Number of branches that fetch encountered
system.cpu0.fetch.predictedBranches           3279315                       # Number of branches that fetch has predicted taken
system.cpu0.fetch.Cycles                     24124660                       # Number of cycles fetch has run and was not squashing or blocked
system.cpu0.fetch.SquashCycles                 209530                       # Number of cycles fetch has spent squashing
system.cpu0.fetch.PendingTrapStallCycles          110                       # Number of stall cycles due to pending traps
system.cpu0.fetch.CacheLines                  6244429                       # Number of cache lines fetched
system.cpu0.fetch.IcacheSquashes                43994                       # Number of outstanding Icache misses that were squashed
system.cpu0.fetch.rateDist::samples          30534689                       # Number of instructions fetched each cycle (Total)
system.cpu0.fetch.rateDist::mean             2.644384                       # Number of instructions fetched each cycle (Total)
system.cpu0.fetch.rateDist::stdev            3.358125                       # Number of instructions fetched each cycle (Total)
system.cpu0.fetch.rateDist::underflows              0      0.00%      0.00% # Number of instructions fetched each cycle (Total)
system.cpu0.fetch.rateDist::0                16794868     55.00%     55.00% # Number of instructions fetched each cycle (Total)
system.cpu0.fetch.rateDist::1                  702565      2.30%     57.30% # Number of instructions fetched each cycle (Total)
system.cpu0.fetch.rateDist::2                 1652887      5.41%     62.72% # Number of instructions fetched each cycle (Total)
system.cpu0.fetch.rateDist::3                  699816      2.29%     65.01% # Number of instructions fetched each cycle (Total)
system.cpu0.fetch.rateDist::4                 1030504      3.37%     68.38% # Number of instructions fetched each cycle (Total)
system.cpu0.fetch.rateDist::5                 1581576      5.18%     73.56% # Number of instructions fetched each cycle (Total)
system.cpu0.fetch.rateDist::6                  582048      1.91%     75.47% # Number of instructions fetched each cycle (Total)
system.cpu0.fetch.rateDist::7                  807939      2.65%     78.12% # Number of instructions fetched each cycle (Total)
system.cpu0.fetch.rateDist::8                 6682486     21.88%    100.00% # Number of instructions fetched each cycle (Total)
system.cpu0.fetch.rateDist::overflows               0      0.00%    100.00% # Number of instructions fetched each cycle (Total)
system.cpu0.fetch.rateDist::min_value               0                       # Number of instructions fetched each cycle (Total)
system.cpu0.fetch.rateDist::max_value               8                       # Number of instructions fetched each cycle (Total)
system.cpu0.fetch.rateDist::total            30534689                       # Number of instructions fetched each cycle (Total)
system.cpu0.fetch.branchRate                 0.172450                       # Number of branch fetches per cycle
system.cpu0.fetch.rate                       1.511590                       # Number of inst fetches per cycle
system.cpu0.decode.IdleCycles                 4039707                       # Number of cycles decode is idle
system.cpu0.decode.BlockedCycles             15906572                       # Number of cycles decode is blocked
system.cpu0.decode.RunCycles                  6049378                       # Number of cycles decode is running
system.cpu0.decode.UnblockCycles              4434267                       # Number of cycles decode is unblocking
system.cpu0.decode.SquashCycles                104765                       # Number of cycles decode is squashing
system.cpu0.decode.DecodedInsts              77431034                       # Number of instructions handled by decode
system.cpu0.rename.SquashCycles                104765                       # Number of cycles rename is squashing
system.cpu0.rename.IdleCycles                 5781047                       # Number of cycles rename is idle
system.cpu0.rename.BlockCycles                5658816                       # Number of cycles rename is blocking
system.cpu0.rename.serializeStallCycles            36                       # count of cycles rename stalled for serializing inst
system.cpu0.rename.RunCycles                  8682897                       # Number of cycles rename is running
system.cpu0.rename.UnblockCycles             10307128                       # Number of cycles rename is unblocking
system.cpu0.rename.RenamedInsts              76896289                       # Number of instructions processed by rename
system.cpu0.rename.ROBFullEvents               231783                       # Number of times rename has blocked due to ROB full
system.cpu0.rename.IQFullEvents               9204266                       # Number of times rename has blocked due to IQ full
system.cpu0.rename.LQFullEvents                    34                       # Number of times rename has blocked due to LQ full
system.cpu0.rename.RenamedOperands           82649359                       # Number of destination operands rename has renamed
system.cpu0.rename.RenameLookups            182727201                       # Number of register rename lookups that rename has made
system.cpu0.rename.int_rename_lookups        60368136                       # Number of integer rename lookups
system.cpu0.rename.fp_rename_lookups         74596658                       # Number of floating rename lookups
system.cpu0.rename.CommittedMaps             70811534                       # Number of HB maps that are committed
system.cpu0.rename.UndoneMaps                11837826                       # Number of HB maps that are undone due to squashing
system.cpu0.rename.serializingInsts                18                       # count of serializing insts renamed
system.cpu0.rename.tempSerializingInsts            18                       # count of temporary serializing insts renamed
system.cpu0.rename.skidInsts                 23770967                       # count of insts added to the skid buffer
system.cpu0.memDep0.insertedLoads             9479238                       # Number of loads inserted to the mem dependence unit.
system.cpu0.memDep0.insertedStores            2123466                       # Number of stores inserted to the mem dependence unit.
system.cpu0.memDep0.conflictingLoads           428890                       # Number of conflicting loads.
system.cpu0.memDep0.conflictingStores          136250                       # Number of conflicting stores.
system.cpu0.iq.iqInstsAdded                  76259097                       # Number of instructions added to the IQ (excludes non-spec)
system.cpu0.iq.iqNonSpecInstsAdded                 10                       # Number of non-speculative instructions added to the IQ
system.cpu0.iq.iqInstsIssued                 70897860                       # Number of instructions issued
system.cpu0.iq.iqSquashedInstsIssued               92                       # Number of squashed instructions issued
system.cpu0.iq.iqSquashedInstsExamined       10066871                       # Number of squashed instructions iterated over during squash; mainly for profiling
system.cpu0.iq.iqSquashedOperandsExamined     14506033                       # Number of squashed operands that are examined and possibly removed from graph
system.cpu0.iq.iqSquashedNonSpecRemoved            10                       # Number of squashed non-spec instructions that were removed
system.cpu0.iq.issued_per_cycle::samples     30534689                       # Number of insts issued each cycle
system.cpu0.iq.issued_per_cycle::mean        2.321879                       # Number of insts issued each cycle
system.cpu0.iq.issued_per_cycle::stdev       1.961539                       # Number of insts issued each cycle
system.cpu0.iq.issued_per_cycle::underflows            0      0.00%      0.00% # Number of insts issued each cycle
system.cpu0.iq.issued_per_cycle::0            6303970     20.65%     20.65% # Number of insts issued each cycle
system.cpu0.iq.issued_per_cycle::1            6121886     20.05%     40.69% # Number of insts issued each cycle
system.cpu0.iq.issued_per_cycle::2            5690187     18.64%     59.33% # Number of insts issued each cycle
system.cpu0.iq.issued_per_cycle::3            4828203     15.81%     75.14% # Number of insts issued each cycle
system.cpu0.iq.issued_per_cycle::4            3011301      9.86%     85.00% # Number of insts issued each cycle
system.cpu0.iq.issued_per_cycle::5            1978849      6.48%     91.48% # Number of insts issued each cycle
system.cpu0.iq.issued_per_cycle::6            1578709      5.17%     96.65% # Number of insts issued each cycle
system.cpu0.iq.issued_per_cycle::7             673384      2.21%     98.86% # Number of insts issued each cycle
system.cpu0.iq.issued_per_cycle::8             348200      1.14%    100.00% # Number of insts issued each cycle
system.cpu0.iq.issued_per_cycle::overflows            0      0.00%    100.00% # Number of insts issued each cycle
system.cpu0.iq.issued_per_cycle::min_value            0                       # Number of insts issued each cycle
system.cpu0.iq.issued_per_cycle::max_value            8                       # Number of insts issued each cycle
system.cpu0.iq.issued_per_cycle::total       30534689                       # Number of insts issued each cycle
system.cpu0.iq.fu_full::No_OpClass                  0      0.00%      0.00% # attempts to use FU when none available
system.cpu0.iq.fu_full::IntAlu                   1155      1.14%      1.14% # attempts to use FU when none available
system.cpu0.iq.fu_full::IntMult                     0      0.00%      1.14% # attempts to use FU when none available
system.cpu0.iq.fu_full::IntDiv                      0      0.00%      1.14% # attempts to use FU when none available
system.cpu0.iq.fu_full::FloatAdd               100253     98.62%     99.76% # attempts to use FU when none available
system.cpu0.iq.fu_full::FloatCmp                    0      0.00%     99.76% # attempts to use FU when none available
system.cpu0.iq.fu_full::FloatCvt                    0      0.00%     99.76% # attempts to use FU when none available
system.cpu0.iq.fu_full::FloatMult                   0      0.00%     99.76% # attempts to use FU when none available
system.cpu0.iq.fu_full::FloatMultAcc                0      0.00%     99.76% # attempts to use FU when none available
system.cpu0.iq.fu_full::FloatDiv                    0      0.00%     99.76% # attempts to use FU when none available
system.cpu0.iq.fu_full::FloatMisc                   0      0.00%     99.76% # attempts to use FU when none available
system.cpu0.iq.fu_full::FloatSqrt                   0      0.00%     99.76% # attempts to use FU when none available
system.cpu0.iq.fu_full::SimdAdd                     0      0.00%     99.76% # attempts to use FU when none available
system.cpu0.iq.fu_full::SimdAddAcc                  0      0.00%     99.76% # attempts to use FU when none available
system.cpu0.iq.fu_full::SimdAlu                     0      0.00%     99.76% # attempts to use FU when none available
system.cpu0.iq.fu_full::SimdCmp                     0      0.00%     99.76% # attempts to use FU when none available
system.cpu0.iq.fu_full::SimdCvt                     0      0.00%     99.76% # attempts to use FU when none available
system.cpu0.iq.fu_full::SimdMisc                    0      0.00%     99.76% # attempts to use FU when none available
system.cpu0.iq.fu_full::SimdMult                    0      0.00%     99.76% # attempts to use FU when none available
system.cpu0.iq.fu_full::SimdMultAcc                 0      0.00%     99.76% # attempts to use FU when none available
system.cpu0.iq.fu_full::SimdShift                   0      0.00%     99.76% # attempts to use FU when none available
system.cpu0.iq.fu_full::SimdShiftAcc                0      0.00%     99.76% # attempts to use FU when none available
system.cpu0.iq.fu_full::SimdSqrt                    0      0.00%     99.76% # attempts to use FU when none available
system.cpu0.iq.fu_full::SimdFloatAdd                0      0.00%     99.76% # attempts to use FU when none available
system.cpu0.iq.fu_full::SimdFloatAlu                0      0.00%     99.76% # attempts to use FU when none available
system.cpu0.iq.fu_full::SimdFloatCmp                0      0.00%     99.76% # attempts to use FU when none available
system.cpu0.iq.fu_full::SimdFloatCvt                0      0.00%     99.76% # attempts to use FU when none available
system.cpu0.iq.fu_full::SimdFloatDiv                0      0.00%     99.76% # attempts to use FU when none available
system.cpu0.iq.fu_full::SimdFloatMisc               0      0.00%     99.76% # attempts to use FU when none available
system.cpu0.iq.fu_full::SimdFloatMult               0      0.00%     99.76% # attempts to use FU when none available
system.cpu0.iq.fu_full::SimdFloatMultAcc            0      0.00%     99.76% # attempts to use FU when none available
system.cpu0.iq.fu_full::SimdFloatSqrt               0      0.00%     99.76% # attempts to use FU when none available
system.cpu0.iq.fu_full::MemRead                   211      0.21%     99.97% # attempts to use FU when none available
system.cpu0.iq.fu_full::MemWrite                    2      0.00%     99.97% # attempts to use FU when none available
system.cpu0.iq.fu_full::FloatMemRead                0      0.00%     99.97% # attempts to use FU when none available
system.cpu0.iq.fu_full::FloatMemWrite              31      0.03%    100.00% # attempts to use FU when none available
system.cpu0.iq.fu_full::IprAccess                   0      0.00%    100.00% # attempts to use FU when none available
system.cpu0.iq.fu_full::InstPrefetch                0      0.00%    100.00% # attempts to use FU when none available
system.cpu0.iq.FU_type_0::No_OpClass             6361      0.01%      0.01% # Type of FU issued
system.cpu0.iq.FU_type_0::IntAlu             36896641     52.04%     52.05% # Type of FU issued
system.cpu0.iq.FU_type_0::IntMult                   0      0.00%     52.05% # Type of FU issued
system.cpu0.iq.FU_type_0::IntDiv                    0      0.00%     52.05% # Type of FU issued
system.cpu0.iq.FU_type_0::FloatAdd           22977968     32.41%     84.46% # Type of FU issued
system.cpu0.iq.FU_type_0::FloatCmp                  0      0.00%     84.46% # Type of FU issued
system.cpu0.iq.FU_type_0::FloatCvt                  0      0.00%     84.46% # Type of FU issued
system.cpu0.iq.FU_type_0::FloatMult                 0      0.00%     84.46% # Type of FU issued
system.cpu0.iq.FU_type_0::FloatMultAcc              0      0.00%     84.46% # Type of FU issued
system.cpu0.iq.FU_type_0::FloatDiv                  0      0.00%     84.46% # Type of FU issued
system.cpu0.iq.FU_type_0::FloatMisc                 0      0.00%     84.46% # Type of FU issued
system.cpu0.iq.FU_type_0::FloatSqrt                 0      0.00%     84.46% # Type of FU issued
system.cpu0.iq.FU_type_0::SimdAdd                   0      0.00%     84.46% # Type of FU issued
system.cpu0.iq.FU_type_0::SimdAddAcc                0      0.00%     84.46% # Type of FU issued
system.cpu0.iq.FU_type_0::SimdAlu                   0      0.00%     84.46% # Type of FU issued
system.cpu0.iq.FU_type_0::SimdCmp                   0      0.00%     84.46% # Type of FU issued
system.cpu0.iq.FU_type_0::SimdCvt                   0      0.00%     84.46% # Type of FU issued
system.cpu0.iq.FU_type_0::SimdMisc                  0      0.00%     84.46% # Type of FU issued
system.cpu0.iq.FU_type_0::SimdMult                  0      0.00%     84.46% # Type of FU issued
system.cpu0.iq.FU_type_0::SimdMultAcc               0      0.00%     84.46% # Type of FU issued
system.cpu0.iq.FU_type_0::SimdShift                 0      0.00%     84.46% # Type of FU issued
system.cpu0.iq.FU_type_0::SimdShiftAcc              0      0.00%     84.46% # Type of FU issued
system.cpu0.iq.FU_type_0::SimdSqrt                  0      0.00%     84.46% # Type of FU issued
system.cpu0.iq.FU_type_0::SimdFloatAdd              0      0.00%     84.46% # Type of FU issued
system.cpu0.iq.FU_type_0::SimdFloatAlu              0      0.00%     84.46% # Type of FU issued
system.cpu0.iq.FU_type_0::SimdFloatCmp              0      0.00%     84.46% # Type of FU issued
system.cpu0.iq.FU_type_0::SimdFloatCvt              0      0.00%     84.46% # Type of FU issued
system.cpu0.iq.FU_type_0::SimdFloatDiv              0      0.00%     84.46% # Type of FU issued
system.cpu0.iq.FU_type_0::SimdFloatMisc             0      0.00%     84.46% # Type of FU issued
system.cpu0.iq.FU_type_0::SimdFloatMult             0      0.00%     84.46% # Type of FU issued
system.cpu0.iq.FU_type_0::SimdFloatMultAcc            0      0.00%     84.46% # Type of FU issued
system.cpu0.iq.FU_type_0::SimdFloatSqrt             0      0.00%     84.46% # Type of FU issued
system.cpu0.iq.FU_type_0::MemRead             1985059      2.80%     87.26% # Type of FU issued
system.cpu0.iq.FU_type_0::MemWrite            1486660      2.10%     89.36% # Type of FU issued
system.cpu0.iq.FU_type_0::FloatMemRead        6914696      9.75%     99.11% # Type of FU issued
system.cpu0.iq.FU_type_0::FloatMemWrite        630475      0.89%    100.00% # Type of FU issued
system.cpu0.iq.FU_type_0::IprAccess                 0      0.00%    100.00% # Type of FU issued
system.cpu0.iq.FU_type_0::InstPrefetch              0      0.00%    100.00% # Type of FU issued
system.cpu0.iq.FU_type_0::total              70897860                       # Type of FU issued
system.cpu0.iq.rate                          2.321879                       # Inst issue rate
system.cpu0.iq.fu_busy_cnt                     101652                       # FU busy when requested
system.cpu0.iq.fu_busy_rate                  0.001434                       # FU busy rate (busy events/executed inst)
system.cpu0.iq.int_inst_queue_reads          97784739                       # Number of integer instruction queue reads
system.cpu0.iq.int_inst_queue_writes         37525827                       # Number of integer instruction queue writes
system.cpu0.iq.int_inst_queue_wakeup_accesses     33552310                       # Number of integer instruction queue wakeup accesses
system.cpu0.iq.fp_inst_queue_reads           74647420                       # Number of floating instruction queue reads
system.cpu0.iq.fp_inst_queue_writes          48800252                       # Number of floating instruction queue writes
system.cpu0.iq.fp_inst_queue_wakeup_accesses     37124960                       # Number of floating instruction queue wakeup accesses
system.cpu0.iq.vec_inst_queue_reads                 0                       # Number of vector instruction queue reads
system.cpu0.iq.vec_inst_queue_writes                0                       # Number of vector instruction queue writes
system.cpu0.iq.vec_inst_queue_wakeup_accesses            0                       # Number of vector instruction queue wakeup accesses
system.cpu0.iq.int_alu_accesses              33619300                       # Number of integer alu accesses
system.cpu0.iq.fp_alu_accesses               37373851                       # Number of floating point alu accesses
system.cpu0.iq.vec_alu_accesses                     0                       # Number of vector alu accesses
system.cpu0.iew.lsq.thread0.forwLoads          422744                       # Number of loads that had data forwarded from stores
system.cpu0.iew.lsq.thread0.invAddrLoads            0                       # Number of loads ignored due to an invalid address
system.cpu0.iew.lsq.thread0.squashedLoads      1331534                       # Number of loads squashed
system.cpu0.iew.lsq.thread0.ignoredResponses           84                       # Number of memory responses ignored because the instruction is squashed
system.cpu0.iew.lsq.thread0.memOrderViolation          101                       # Number of memory ordering violations
system.cpu0.iew.lsq.thread0.squashedStores        15456                       # Number of stores squashed
system.cpu0.iew.lsq.thread0.invAddrSwpfs            0                       # Number of software prefetches ignored due to an invalid address
system.cpu0.iew.lsq.thread0.blockedLoads            0                       # Number of blocked loads due to partial load-store forwarding
system.cpu0.iew.lsq.thread0.rescheduledLoads            1                       # Number of loads that were rescheduled
system.cpu0.iew.lsq.thread0.cacheBlocked            0                       # Number of times an access to memory failed due to the cache being blocked
system.cpu0.iew.iewIdleCycles                       0                       # Number of cycles IEW is idle
system.cpu0.iew.iewSquashCycles                104765                       # Number of cycles IEW is squashing
system.cpu0.iew.iewBlockCycles                3284643                       # Number of cycles IEW is blocking
system.cpu0.iew.iewUnblockCycles               123241                       # Number of cycles IEW is unblocking
system.cpu0.iew.iewDispatchedInsts           76259107                       # Number of instructions dispatched to IQ
system.cpu0.iew.iewDispSquashedInsts              422                       # Number of squashed instructions skipped by dispatch
system.cpu0.iew.iewDispLoadInsts              9479238                       # Number of dispatched load instructions
system.cpu0.iew.iewDispStoreInsts             2123466                       # Number of dispatched store instructions
system.cpu0.iew.iewDispNonSpecInsts                10                       # Number of dispatched non-speculative instructions
system.cpu0.iew.iewIQFullEvents                109740                       # Number of times the IQ has become full, causing a stall
system.cpu0.iew.iewLSQFullEvents                    0                       # Number of times the LSQ has become full, causing a stall
system.cpu0.iew.memOrderViolationEvents           101                       # Number of memory order violations
system.cpu0.iew.predictedTakenIncorrect         63516                       # Number of branches that were predicted taken incorrectly
system.cpu0.iew.predictedNotTakenIncorrect        41927                       # Number of branches that were predicted not taken incorrectly
system.cpu0.iew.branchMispredicts              105443                       # Number of branch mispredicts detected at execute
system.cpu0.iew.iewExecutedInsts             70690172                       # Number of executed instructions
system.cpu0.iew.iewExecLoadInsts              8894644                       # Number of load instructions executed
system.cpu0.iew.iewExecSquashedInsts           207694                       # Number of squashed instructions skipped in execute
system.cpu0.iew.exec_swp                            0                       # number of swp insts executed
system.cpu0.iew.exec_nop                            0                       # number of nop insts executed
system.cpu0.iew.exec_refs                    11011128                       # number of memory reference insts executed
system.cpu0.iew.exec_branches                 4743025                       # Number of branches executed
system.cpu0.iew.exec_stores                   2116484                       # Number of stores executed
system.cpu0.iew.exec_rate                    2.315078                       # Inst execution rate
system.cpu0.iew.wb_sent                      70684187                       # cumulative count of insts sent to commit
system.cpu0.iew.wb_count                     70677270                       # cumulative count of insts written-back
system.cpu0.iew.wb_producers                 52649822                       # num instructions producing a value
system.cpu0.iew.wb_consumers                 92735152                       # num instructions consuming a value
system.cpu0.iew.wb_rate                      2.314655                       # insts written-back per cycle
system.cpu0.iew.wb_fanout                    0.567744                       # average fanout of values written-back
system.cpu0.commit.commitSquashedInsts       10066871                       # The number of squashed insts skipped by commit
system.cpu0.commit.branchMispredicts           104664                       # The number of times a branch was mispredicted
system.cpu0.commit.committed_per_cycle::samples     29246056                       # Number of insts commited each cycle
system.cpu0.commit.committed_per_cycle::mean     2.263288                       # Number of insts commited each cycle
system.cpu0.commit.committed_per_cycle::stdev     2.864759                       # Number of insts commited each cycle
system.cpu0.commit.committed_per_cycle::underflows            0      0.00%      0.00% # Number of insts commited each cycle
system.cpu0.commit.committed_per_cycle::0     10930763     37.38%     37.38% # Number of insts commited each cycle
system.cpu0.commit.committed_per_cycle::1      7535389     25.77%     63.14% # Number of insts commited each cycle
system.cpu0.commit.committed_per_cycle::2      1063576      3.64%     66.78% # Number of insts commited each cycle
system.cpu0.commit.committed_per_cycle::3      2917268      9.97%     76.75% # Number of insts commited each cycle
system.cpu0.commit.committed_per_cycle::4      1142148      3.91%     80.66% # Number of insts commited each cycle
system.cpu0.commit.committed_per_cycle::5       218219      0.75%     81.40% # Number of insts commited each cycle
system.cpu0.commit.committed_per_cycle::6       424294      1.45%     82.85% # Number of insts commited each cycle
system.cpu0.commit.committed_per_cycle::7       542737      1.86%     84.71% # Number of insts commited each cycle
system.cpu0.commit.committed_per_cycle::8      4471662     15.29%    100.00% # Number of insts commited each cycle
system.cpu0.commit.committed_per_cycle::overflows            0      0.00%    100.00% # Number of insts commited each cycle
system.cpu0.commit.committed_per_cycle::min_value            0                       # Number of insts commited each cycle
system.cpu0.commit.committed_per_cycle::max_value            8                       # Number of insts commited each cycle
system.cpu0.commit.committed_per_cycle::total     29246056                       # Number of insts commited each cycle
system.cpu0.commit.committedInsts            37287320                       # Number of instructions committed
system.cpu0.commit.committedOps              66192251                       # Number of ops (including micro ops) committed
system.cpu0.commit.swp_count                        0                       # Number of s/w prefetches committed
system.cpu0.commit.refs                      10255717                       # Number of memory references committed
system.cpu0.commit.loads                      8147708                       # Number of loads committed
system.cpu0.commit.membars                          0                       # Number of memory barriers committed
system.cpu0.commit.branches                   4633342                       # Number of branches committed
system.cpu0.commit.vec_insts                        0                       # Number of committed Vector instructions.
system.cpu0.commit.fp_insts                  34229383                       # Number of committed floating point instructions.
system.cpu0.commit.int_insts                 41087356                       # Number of committed integer instructions.
system.cpu0.commit.function_calls              630268                       # Number of function calls committed.
system.cpu0.commit.op_class_0::No_OpClass         6017      0.01%      0.01% # Class of committed instruction
system.cpu0.commit.op_class_0::IntAlu        34403892     51.98%     51.98% # Class of committed instruction
system.cpu0.commit.op_class_0::IntMult              0      0.00%     51.98% # Class of committed instruction
system.cpu0.commit.op_class_0::IntDiv               0      0.00%     51.98% # Class of committed instruction
system.cpu0.commit.op_class_0::FloatAdd      21526625     32.52%     84.51% # Class of committed instruction
system.cpu0.commit.op_class_0::FloatCmp             0      0.00%     84.51% # Class of committed instruction
system.cpu0.commit.op_class_0::FloatCvt             0      0.00%     84.51% # Class of committed instruction
system.cpu0.commit.op_class_0::FloatMult            0      0.00%     84.51% # Class of committed instruction
system.cpu0.commit.op_class_0::FloatMultAcc            0      0.00%     84.51% # Class of committed instruction
system.cpu0.commit.op_class_0::FloatDiv             0      0.00%     84.51% # Class of committed instruction
system.cpu0.commit.op_class_0::FloatMisc            0      0.00%     84.51% # Class of committed instruction
system.cpu0.commit.op_class_0::FloatSqrt            0      0.00%     84.51% # Class of committed instruction
system.cpu0.commit.op_class_0::SimdAdd              0      0.00%     84.51% # Class of committed instruction
system.cpu0.commit.op_class_0::SimdAddAcc            0      0.00%     84.51% # Class of committed instruction
system.cpu0.commit.op_class_0::SimdAlu              0      0.00%     84.51% # Class of committed instruction
system.cpu0.commit.op_class_0::SimdCmp              0      0.00%     84.51% # Class of committed instruction
system.cpu0.commit.op_class_0::SimdCvt              0      0.00%     84.51% # Class of committed instruction
system.cpu0.commit.op_class_0::SimdMisc             0      0.00%     84.51% # Class of committed instruction
system.cpu0.commit.op_class_0::SimdMult             0      0.00%     84.51% # Class of committed instruction
system.cpu0.commit.op_class_0::SimdMultAcc            0      0.00%     84.51% # Class of committed instruction
system.cpu0.commit.op_class_0::SimdShift            0      0.00%     84.51% # Class of committed instruction
system.cpu0.commit.op_class_0::SimdShiftAcc            0      0.00%     84.51% # Class of committed instruction
system.cpu0.commit.op_class_0::SimdSqrt             0      0.00%     84.51% # Class of committed instruction
system.cpu0.commit.op_class_0::SimdFloatAdd            0      0.00%     84.51% # Class of committed instruction
system.cpu0.commit.op_class_0::SimdFloatAlu            0      0.00%     84.51% # Class of committed instruction
system.cpu0.commit.op_class_0::SimdFloatCmp            0      0.00%     84.51% # Class of committed instruction
system.cpu0.commit.op_class_0::SimdFloatCvt            0      0.00%     84.51% # Class of committed instruction
system.cpu0.commit.op_class_0::SimdFloatDiv            0      0.00%     84.51% # Class of committed instruction
system.cpu0.commit.op_class_0::SimdFloatMisc            0      0.00%     84.51% # Class of committed instruction
system.cpu0.commit.op_class_0::SimdFloatMult            0      0.00%     84.51% # Class of committed instruction
system.cpu0.commit.op_class_0::SimdFloatMultAcc            0      0.00%     84.51% # Class of committed instruction
system.cpu0.commit.op_class_0::SimdFloatSqrt            0      0.00%     84.51% # Class of committed instruction
system.cpu0.commit.op_class_0::MemRead        1958461      2.96%     87.46% # Class of committed instruction
system.cpu0.commit.op_class_0::MemWrite       1477734      2.23%     89.70% # Class of committed instruction
system.cpu0.commit.op_class_0::FloatMemRead      6189247      9.35%     99.05% # Class of committed instruction
system.cpu0.commit.op_class_0::FloatMemWrite       630275      0.95%    100.00% # Class of committed instruction
system.cpu0.commit.op_class_0::IprAccess            0      0.00%    100.00% # Class of committed instruction
system.cpu0.commit.op_class_0::InstPrefetch            0      0.00%    100.00% # Class of committed instruction
system.cpu0.commit.op_class_0::total         66192251                       # Class of committed instruction
system.cpu0.commit.bw_lim_events              4471662                       # number cycles where commit BW limit reached
system.cpu0.rob.rob_reads                   101033516                       # The number of ROB reads
system.cpu0.rob.rob_writes                  153806909                       # The number of ROB writes
system.cpu0.committedInsts                   37287320                       # Number of Instructions Simulated
system.cpu0.committedOps                     66192251                       # Number of Ops (including micro ops) Simulated
system.cpu0.cpi                              0.818903                       # CPI: Cycles Per Instruction
system.cpu0.cpi_total                        0.818903                       # CPI: Total CPI of All Threads
system.cpu0.ipc                              1.221146                       # IPC: Instructions Per Cycle
system.cpu0.ipc_total                        1.221146                       # IPC: Total IPC of All Threads
system.cpu0.int_regfile_reads                56404863                       # number of integer regfile reads
system.cpu0.int_regfile_writes               28671965                       # number of integer regfile writes
system.cpu0.fp_regfile_reads                 64744853                       # number of floating regfile reads
system.cpu0.fp_regfile_writes                33252813                       # number of floating regfile writes
system.cpu0.cc_regfile_reads                 20724203                       # number of cc regfile reads
system.cpu0.cc_regfile_writes                13463530                       # number of cc regfile writes
system.cpu0.misc_regfile_reads               24168899                       # number of misc regfile reads
system.cpu0.dcache.tags.pwrStateResidencyTicks::UNDEFINED  15267344125                       # Cumulative time (in ticks) in various power states
system.cpu0.dcache.tags.replacements            14352                       # number of replacements
system.cpu0.dcache.tags.tagsinuse                1024                       # Cycle average of tags in use
system.cpu0.dcache.tags.total_refs            1092177                       # Total number of references to valid blocks.
system.cpu0.dcache.tags.sampled_refs            14352                       # Sample count of references to valid blocks.
system.cpu0.dcache.tags.avg_refs            76.099289                       # Average number of references to valid blocks.
system.cpu0.dcache.tags.warmup_cycle                0                       # Cycle when the warmup percentage was hit.
system.cpu0.dcache.tags.occ_blocks::cpu0.data         1024                       # Average occupied blocks per requestor
system.cpu0.dcache.tags.occ_percent::cpu0.data            1                       # Average percentage of cache occupancy
system.cpu0.dcache.tags.occ_percent::total            1                       # Average percentage of cache occupancy
system.cpu0.dcache.tags.occ_task_id_blocks::1024         1024                       # Occupied blocks per task id
system.cpu0.dcache.tags.age_task_id_blocks_1024::0            9                       # Occupied blocks per task id
system.cpu0.dcache.tags.age_task_id_blocks_1024::1           84                       # Occupied blocks per task id
system.cpu0.dcache.tags.age_task_id_blocks_1024::2          700                       # Occupied blocks per task id
system.cpu0.dcache.tags.age_task_id_blocks_1024::3           11                       # Occupied blocks per task id
system.cpu0.dcache.tags.age_task_id_blocks_1024::4          220                       # Occupied blocks per task id
system.cpu0.dcache.tags.occ_task_id_percent::1024            1                       # Percentage of cache occupancy per task id
system.cpu0.dcache.tags.tag_accesses         42435048                       # Number of tag accesses
system.cpu0.dcache.tags.data_accesses        42435048                       # Number of data accesses
system.cpu0.dcache.pwrStateResidencyTicks::UNDEFINED  15267344125                       # Cumulative time (in ticks) in various power states
system.cpu0.dcache.ReadReq_hits::cpu0.data      8482679                       # number of ReadReq hits
system.cpu0.dcache.ReadReq_hits::total        8482679                       # number of ReadReq hits
system.cpu0.dcache.WriteReq_hits::cpu0.data      2108009                       # number of WriteReq hits
system.cpu0.dcache.WriteReq_hits::total       2108009                       # number of WriteReq hits
system.cpu0.dcache.demand_hits::cpu0.data     10590688                       # number of demand (read+write) hits
system.cpu0.dcache.demand_hits::total        10590688                       # number of demand (read+write) hits
system.cpu0.dcache.overall_hits::cpu0.data     10590688                       # number of overall hits
system.cpu0.dcache.overall_hits::total       10590688                       # number of overall hits
system.cpu0.dcache.ReadReq_misses::cpu0.data        14486                       # number of ReadReq misses
system.cpu0.dcache.ReadReq_misses::total        14486                       # number of ReadReq misses
system.cpu0.dcache.demand_misses::cpu0.data        14486                       # number of demand (read+write) misses
system.cpu0.dcache.demand_misses::total         14486                       # number of demand (read+write) misses
system.cpu0.dcache.overall_misses::cpu0.data        14486                       # number of overall misses
system.cpu0.dcache.overall_misses::total        14486                       # number of overall misses
system.cpu0.dcache.ReadReq_miss_latency::cpu0.data   1407540500                       # number of ReadReq miss cycles
system.cpu0.dcache.ReadReq_miss_latency::total   1407540500                       # number of ReadReq miss cycles
system.cpu0.dcache.demand_miss_latency::cpu0.data   1407540500                       # number of demand (read+write) miss cycles
system.cpu0.dcache.demand_miss_latency::total   1407540500                       # number of demand (read+write) miss cycles
system.cpu0.dcache.overall_miss_latency::cpu0.data   1407540500                       # number of overall miss cycles
system.cpu0.dcache.overall_miss_latency::total   1407540500                       # number of overall miss cycles
system.cpu0.dcache.ReadReq_accesses::cpu0.data      8497165                       # number of ReadReq accesses(hits+misses)
system.cpu0.dcache.ReadReq_accesses::total      8497165                       # number of ReadReq accesses(hits+misses)
system.cpu0.dcache.WriteReq_accesses::cpu0.data      2108009                       # number of WriteReq accesses(hits+misses)
system.cpu0.dcache.WriteReq_accesses::total      2108009                       # number of WriteReq accesses(hits+misses)
system.cpu0.dcache.demand_accesses::cpu0.data     10605174                       # number of demand (read+write) accesses
system.cpu0.dcache.demand_accesses::total     10605174                       # number of demand (read+write) accesses
system.cpu0.dcache.overall_accesses::cpu0.data     10605174                       # number of overall (read+write) accesses
system.cpu0.dcache.overall_accesses::total     10605174                       # number of overall (read+write) accesses
system.cpu0.dcache.ReadReq_miss_rate::cpu0.data     0.001705                       # miss rate for ReadReq accesses
system.cpu0.dcache.ReadReq_miss_rate::total     0.001705                       # miss rate for ReadReq accesses
system.cpu0.dcache.demand_miss_rate::cpu0.data     0.001366                       # miss rate for demand accesses
system.cpu0.dcache.demand_miss_rate::total     0.001366                       # miss rate for demand accesses
system.cpu0.dcache.overall_miss_rate::cpu0.data     0.001366                       # miss rate for overall accesses
system.cpu0.dcache.overall_miss_rate::total     0.001366                       # miss rate for overall accesses
system.cpu0.dcache.ReadReq_avg_miss_latency::cpu0.data 97165.573657                       # average ReadReq miss latency
system.cpu0.dcache.ReadReq_avg_miss_latency::total 97165.573657                       # average ReadReq miss latency
system.cpu0.dcache.demand_avg_miss_latency::cpu0.data 97165.573657                       # average overall miss latency
system.cpu0.dcache.demand_avg_miss_latency::total 97165.573657                       # average overall miss latency
system.cpu0.dcache.overall_avg_miss_latency::cpu0.data 97165.573657                       # average overall miss latency
system.cpu0.dcache.overall_avg_miss_latency::total 97165.573657                       # average overall miss latency
system.cpu0.dcache.blocked_cycles::no_mshrs            0                       # number of cycles access was blocked
system.cpu0.dcache.blocked_cycles::no_targets            0                       # number of cycles access was blocked
system.cpu0.dcache.blocked::no_mshrs                0                       # number of cycles access was blocked
system.cpu0.dcache.blocked::no_targets              0                       # number of cycles access was blocked
system.cpu0.dcache.avg_blocked_cycles::no_mshrs          nan                       # average number of cycles each access was blocked
system.cpu0.dcache.avg_blocked_cycles::no_targets          nan                       # average number of cycles each access was blocked
system.cpu0.dcache.writebacks::writebacks        13501                       # number of writebacks
system.cpu0.dcache.writebacks::total            13501                       # number of writebacks
system.cpu0.dcache.ReadReq_mshr_hits::cpu0.data          133                       # number of ReadReq MSHR hits
system.cpu0.dcache.ReadReq_mshr_hits::total          133                       # number of ReadReq MSHR hits
system.cpu0.dcache.demand_mshr_hits::cpu0.data          133                       # number of demand (read+write) MSHR hits
system.cpu0.dcache.demand_mshr_hits::total          133                       # number of demand (read+write) MSHR hits
system.cpu0.dcache.overall_mshr_hits::cpu0.data          133                       # number of overall MSHR hits
[...]
system.l2.tags.pwrStateResidencyTicks::UNDEFINED  15267344125                       # Cumulative time (in ticks) in various power states
system.l2.tags.replacements                     14316                       # number of replacements
system.l2.tags.tagsinuse                        49152                       # Cycle average of tags in use
system.l2.tags.total_refs                       14315                       # Total number of references to valid blocks.
system.l2.tags.sampled_refs                     14316                       # Sample count of references to valid blocks.
system.l2.tags.avg_refs                      0.999930                       # Average number of references to valid blocks.
system.l2.tags.warmup_cycle                         0                       # Cycle when the warmup percentage was hit.
system.l2.tags.occ_blocks::cpu0.data            49152                       # Average occupied blocks per requestor
system.l2.tags.occ_percent::cpu0.data               1                       # Average percentage of cache occupancy
system.l2.tags.occ_percent::total                   1                       # Average percentage of cache occupancy
system.l2.tags.occ_task_id_blocks::1024         49152                       # Occupied blocks per task id
system.l2.tags.age_task_id_blocks_1024::0            9                       # Occupied blocks per task id
system.l2.tags.age_task_id_blocks_1024::1           84                       # Occupied blocks per task id
system.l2.tags.age_task_id_blocks_1024::2          841                       # Occupied blocks per task id
system.l2.tags.age_task_id_blocks_1024::3         8449                       # Occupied blocks per task id
system.l2.tags.age_task_id_blocks_1024::4        39769                       # Occupied blocks per task id
system.l2.tags.occ_task_id_percent::1024            1                       # Percentage of cache occupancy per task id
system.l2.tags.tag_accesses                    358776                       # Number of tag accesses
system.l2.tags.data_accesses                   358776                       # Number of data accesses
system.l2.pwrStateResidencyTicks::UNDEFINED  15267344125                       # Cumulative time (in ticks) in various power states
system.l2.WritebackDirty_hits::writebacks        13501                       # number of WritebackDirty hits
system.l2.WritebackDirty_hits::total            13501                       # number of WritebackDirty hits
system.l2.ReadSharedReq_hits::cpu0.data            36                       # number of ReadSharedReq hits
system.l2.ReadSharedReq_hits::total                36                       # number of ReadSharedReq hits
system.l2.demand_hits::cpu0.data                   36                       # number of demand (read+write) hits
system.l2.demand_hits::total                       36                       # number of demand (read+write) hits
system.l2.overall_hits::cpu0.data                  36                       # number of overall hits
system.l2.overall_hits::total                      36                       # number of overall hits
system.l2.ReadSharedReq_misses::cpu0.data        14317                       # number of ReadSharedReq misses
system.l2.ReadSharedReq_misses::total           14317                       # number of ReadSharedReq misses
system.l2.demand_misses::cpu0.data              14317                       # number of demand (read+write) misses
system.l2.demand_misses::total                  14317                       # number of demand (read+write) misses
system.l2.overall_misses::cpu0.data             14317                       # number of overall misses
system.l2.overall_misses::total                 14317                       # number of overall misses
system.l2.ReadSharedReq_miss_latency::cpu0.data   1362136500                       # number of ReadSharedReq miss cycles
system.l2.ReadSharedReq_miss_latency::total   1362136500                       # number of ReadSharedReq miss cycles
system.l2.demand_miss_latency::cpu0.data   1362136500                       # number of demand (read+write) miss cycles
system.l2.demand_miss_latency::total       1362136500                       # number of demand (read+write) miss cycles
system.l2.overall_miss_latency::cpu0.data   1362136500                       # number of overall miss cycles
system.l2.overall_miss_latency::total      1362136500                       # number of overall miss cycles
system.l2.WritebackDirty_accesses::writebacks        13501                       # number of WritebackDirty accesses(hits+misses)
system.l2.WritebackDirty_accesses::total        13501                       # number of WritebackDirty accesses(hits+misses)
system.l2.ReadSharedReq_accesses::cpu0.data        14353                       # number of ReadSharedReq accesses(hits+misses)
system.l2.ReadSharedReq_accesses::total         14353                       # number of ReadSharedReq accesses(hits+misses)
system.l2.demand_accesses::cpu0.data            14353                       # number of demand (read+write) accesses
system.l2.demand_accesses::total                14353                       # number of demand (read+write) accesses
system.l2.overall_accesses::cpu0.data           14353                       # number of overall (read+write) accesses
system.l2.overall_accesses::total               14353                       # number of overall (read+write) accesses
system.l2.ReadSharedReq_miss_rate::cpu0.data     0.997492                       # miss rate for ReadSharedReq accesses
system.l2.ReadSharedReq_miss_rate::total     0.997492                       # miss rate for ReadSharedReq accesses
system.l2.demand_miss_rate::cpu0.data        0.997492                       # miss rate for demand accesses
system.l2.demand_miss_rate::total            0.997492                       # miss rate for demand accesses
system.l2.overall_miss_rate::cpu0.data       0.997492                       # miss rate for overall accesses
system.l2.overall_miss_rate::total           0.997492                       # miss rate for overall accesses
system.l2.ReadSharedReq_avg_miss_latency::cpu0.data 95141.195781                       # average ReadSharedReq miss latency
system.l2.ReadSharedReq_avg_miss_latency::total 95141.195781                       # average ReadSharedReq miss latency
system.l2.demand_avg_miss_latency::cpu0.data 95141.195781                       # average overall miss latency
system.l2.demand_avg_miss_latency::total 95141.195781                       # average overall miss latency
system.l2.overall_avg_miss_latency::cpu0.data 95141.195781                       # average overall miss latency
system.l2.overall_avg_miss_latency::total 95141.195781                       # average overall miss latency
system.l2.blocked_cycles::no_mshrs                  0                       # number of cycles access was blocked
system.l2.blocked_cycles::no_targets                0                       # number of cycles access was blocked
system.l2.blocked::no_mshrs                         0                       # number of cycles access was blocked
system.l2.blocked::no_targets                       0                       # number of cycles access was blocked
system.l2.avg_blocked_cycles::no_mshrs            nan                       # average number of cycles each access was blocked
system.l2.avg_blocked_cycles::no_targets          nan                       # average number of cycles each access was blocked
system.l2.writebacks::writebacks                13500                       # number of writebacks
system.l2.writebacks::total                     13500                       # number of writebacks
system.l2.ReadSharedReq_mshr_misses::cpu0.data        14317                       # number of ReadSharedReq MSHR misses
system.l2.ReadSharedReq_mshr_misses::total        14317                       # number of ReadSharedReq MSHR misses
system.l2.demand_mshr_misses::cpu0.data         14317                       # number of demand (read+write) MSHR misses
system.l2.demand_mshr_misses::total             14317                       # number of demand (read+write) MSHR misses
system.l2.overall_mshr_misses::cpu0.data        14317                       # number of overall MSHR misses
system.l2.overall_mshr_misses::total            14317                       # number of overall MSHR misses
system.l2.ReadSharedReq_mshr_miss_latency::cpu0.data   1218976500                       # number of ReadSharedReq MSHR miss cycles
system.l2.ReadSharedReq_mshr_miss_latency::total   1218976500                       # number of ReadSharedReq MSHR miss cycles
system.l2.demand_mshr_miss_latency::cpu0.data   1218976500                       # number of demand (read+write) MSHR miss cycles
system.l2.demand_mshr_miss_latency::total   1218976500                       # number of demand (read+write) MSHR miss cycles
system.l2.overall_mshr_miss_latency::cpu0.data   1218976500                       # number of overall MSHR miss cycles
system.l2.overall_mshr_miss_latency::total   1218976500                       # number of overall MSHR miss cycles
system.l2.ReadSharedReq_mshr_miss_rate::cpu0.data     0.997492                       # mshr miss rate for ReadSharedReq accesses
system.l2.ReadSharedReq_mshr_miss_rate::total     0.997492                       # mshr miss rate for ReadSharedReq accesses
system.l2.demand_mshr_miss_rate::cpu0.data     0.997492                       # mshr miss rate for demand accesses
system.l2.demand_mshr_miss_rate::total       0.997492                       # mshr miss rate for demand accesses
system.l2.overall_mshr_miss_rate::cpu0.data     0.997492                       # mshr miss rate for overall accesses
system.l2.overall_mshr_miss_rate::total      0.997492                       # mshr miss rate for overall accesses
system.l2.ReadSharedReq_avg_mshr_miss_latency::cpu0.data 85141.894252                       # average ReadSharedReq mshr miss latency
system.l2.ReadSharedReq_avg_mshr_miss_latency::total 85141.894252                       # average ReadSharedReq mshr miss latency
system.l2.demand_avg_mshr_miss_latency::cpu0.data 85141.894252                       # average overall mshr miss latency
system.l2.demand_avg_mshr_miss_latency::total 85141.894252                       # average overall mshr miss latency
system.l2.overall_avg_mshr_miss_latency::cpu0.data 85141.894252                       # average overall mshr miss latency
system.l2.overall_avg_mshr_miss_latency::total 85141.894252                       # average overall mshr miss latency
system.membus.snoop_filter.tot_requests         28632                       # Total number of requests made to the snoop filter.
system.membus.snoop_filter.hit_single_requests        14315                       # Number of requests hitting in the snoop filter with a single holder of the requested data.
system.membus.snoop_filter.hit_multi_requests            0                       # Number of requests hitting in the snoop filter with multiple (>1) holders of the requested data.
system.membus.snoop_filter.tot_snoops               0                       # Total number of snoops made to the snoop filter.
system.membus.snoop_filter.hit_single_snoops            0                       # Number of snoops hitting in the snoop filter with a single holder of the requested data.
system.membus.snoop_filter.hit_multi_snoops            0                       # Number of snoops hitting in the snoop filter with multiple (>1) holders of the requested data.
system.membus.pwrStateResidencyTicks::UNDEFINED  15267344125                       # Cumulative time (in ticks) in various power states
system.membus.trans_dist::ReadResp              14316                       # Transaction distribution
system.membus.trans_dist::WritebackDirty        13500                       # Transaction distribution
system.membus.trans_dist::CleanEvict              815                       # Transaction distribution
system.membus.trans_dist::ReadSharedReq         14317                       # Transaction distribution
system.membus.pkt_count_system.l2.mem_side::system.mem_ctrls.port        42948                       # Packet count per connected master and slave (bytes)
system.membus.pkt_count_system.l2.mem_side::total        42948                       # Packet count per connected master and slave (bytes)
system.membus.pkt_count::total                  42948                       # Packet count per connected master and slave (bytes)
system.membus.pkt_size_system.l2.mem_side::system.mem_ctrls.port      1780224                       # Cumulative packet size per connected master and slave (bytes)
system.membus.pkt_size_system.l2.mem_side::total      1780224                       # Cumulative packet size per connected master and slave (bytes)
system.membus.pkt_size::total                 1780224                       # Cumulative packet size per connected master and slave (bytes)
system.membus.snoops                                0                       # Total snoops (count)
system.membus.snoopTraffic                          0                       # Total snoop traffic (bytes)
system.membus.snoop_fanout::samples             14317                       # Request fanout histogram
system.membus.snoop_fanout::mean                    0                       # Request fanout histogram
system.membus.snoop_fanout::stdev                   0                       # Request fanout histogram
system.membus.snoop_fanout::underflows              0      0.00%      0.00% # Request fanout histogram
system.membus.snoop_fanout::0                   14317    100.00%    100.00% # Request fanout histogram
system.membus.snoop_fanout::1                       0      0.00%    100.00% # Request fanout histogram
system.membus.snoop_fanout::overflows               0      0.00%    100.00% # Request fanout histogram
system.membus.snoop_fanout::min_value               0                       # Request fanout histogram
system.membus.snoop_fanout::max_value               0                       # Request fanout histogram
system.membus.snoop_fanout::total               14317                       # Request fanout histogram
system.membus.reqLayer8.occupancy            86213000                       # Layer occupancy (ticks)
system.membus.reqLayer8.utilization               0.6                       # Layer utilization (%)
system.membus.respLayer1.occupancy           76262750                       # Layer occupancy (ticks)
system.membus.respLayer1.utilization              0.5                       # Layer utilization (%)
system.tol2bus.snoop_filter.tot_requests        28705                       # Total number of requests made to the snoop filter.
system.tol2bus.snoop_filter.hit_single_requests        14352                       # Number of requests hitting in the snoop filter with a single holder of the requested data.
system.tol2bus.snoop_filter.hit_multi_requests            0                       # Number of requests hitting in the snoop filter with multiple (>1) holders of the requested data.
system.tol2bus.snoop_filter.tot_snoops              1                       # Total number of snoops made to the snoop filter.
system.tol2bus.snoop_filter.hit_single_snoops            1                       # Number of snoops hitting in the snoop filter with a single holder of the requested data.
system.tol2bus.snoop_filter.hit_multi_snoops            0                       # Number of snoops hitting in the snoop filter with multiple (>1) holders of the requested data.
system.tol2bus.pwrStateResidencyTicks::UNDEFINED  15267344125                       # Cumulative time (in ticks) in various power states
system.tol2bus.trans_dist::ReadResp             14352                       # Transaction distribution
system.tol2bus.trans_dist::WritebackDirty        27001                       # Transaction distribution
system.tol2bus.trans_dist::CleanEvict            1667                       # Transaction distribution
system.tol2bus.trans_dist::ReadSharedReq        14353                       # Transaction distribution
system.tol2bus.pkt_count_system.cpu0.dcache.mem_side::system.l2.cpu_side        43057                       # Packet count per connected master and slave (bytes)
system.tol2bus.pkt_count::total                 43057                       # Packet count per connected master and slave (bytes)
system.tol2bus.pkt_size_system.cpu0.dcache.mem_side::system.l2.cpu_side      1782592                       # Cumulative packet size per connected master and slave (bytes)
system.tol2bus.pkt_size::total                1782592                       # Cumulative packet size per connected master and slave (bytes)
system.tol2bus.snoops                           14316                       # Total snoops (count)
system.tol2bus.snoopTraffic                    864000                       # Total snoop traffic (bytes)
system.tol2bus.snoop_fanout::samples            28669                       # Request fanout histogram
system.tol2bus.snoop_fanout::mean            0.000035                       # Request fanout histogram
system.tol2bus.snoop_fanout::stdev           0.005906                       # Request fanout histogram
system.tol2bus.snoop_fanout::underflows             0      0.00%      0.00% # Request fanout histogram
system.tol2bus.snoop_fanout::0                  28668    100.00%    100.00% # Request fanout histogram
system.tol2bus.snoop_fanout::1                      1      0.00%    100.00% # Request fanout histogram
system.tol2bus.snoop_fanout::2                      0      0.00%    100.00% # Request fanout histogram
system.tol2bus.snoop_fanout::3                      0      0.00%    100.00% # Request fanout histogram
system.tol2bus.snoop_fanout::4                      0      0.00%    100.00% # Request fanout histogram
system.tol2bus.snoop_fanout::5                      0      0.00%    100.00% # Request fanout histogram
system.tol2bus.snoop_fanout::6                      0      0.00%    100.00% # Request fanout histogram
system.tol2bus.snoop_fanout::7                      0      0.00%    100.00% # Request fanout histogram
system.tol2bus.snoop_fanout::8                      0      0.00%    100.00% # Request fanout histogram
system.tol2bus.snoop_fanout::9                      0      0.00%    100.00% # Request fanout histogram
system.tol2bus.snoop_fanout::10                     0      0.00%    100.00% # Request fanout histogram
system.tol2bus.snoop_fanout::11                     0      0.00%    100.00% # Request fanout histogram
system.tol2bus.snoop_fanout::12                     0      0.00%    100.00% # Request fanout histogram
system.tol2bus.snoop_fanout::13                     0      0.00%    100.00% # Request fanout histogram
system.tol2bus.snoop_fanout::14                     0      0.00%    100.00% # Request fanout histogram
system.tol2bus.snoop_fanout::15                     0      0.00%    100.00% # Request fanout histogram
system.tol2bus.snoop_fanout::16                     0      0.00%    100.00% # Request fanout histogram
system.tol2bus.snoop_fanout::overflows              0      0.00%    100.00% # Request fanout histogram
system.tol2bus.snoop_fanout::min_value              0                       # Request fanout histogram
system.tol2bus.snoop_fanout::max_value              1                       # Request fanout histogram
system.tol2bus.snoop_fanout::total              28669                       # Request fanout histogram
system.tol2bus.reqLayer0.occupancy           27853500                       # Layer occupancy (ticks)
system.tol2bus.reqLayer0.utilization              0.2                       # Layer utilization (%)
system.tol2bus.respLayer1.occupancy          21528000                       # Layer occupancy (ticks)
system.tol2bus.respLayer1.utilization             0.1                       # Layer utilization (%)

---------- End Simulation Statistics   ----------
