
---------- Begin Simulation Statistics ----------
sim_seconds                                  0.015267                       # Number of seconds simulated
sim_ticks                                 15267344125                       # Number of ticks simulated
final_tick                               4992421528875                       # Number of ticks from beginning of simulation (restored from checkpoints and never reset)
sim_freq                                 1000000000000                       # Frequency of simulated ticks
host_inst_rate                               70474229                       # Simulator instruction rate (inst/s)
host_op_rate                                131010405                       # Simulator op (including micro ops) rate (op/s)
host_tick_rate                              184843122                       # Simulator tick rate (ticks/s)
host_mem_usage                                2332676                       # Number of bytes of host memory used
host_seconds                                    82.60                       # Real time elapsed on the host
sim_insts                                  5820902769                       # Number of instructions simulated
sim_ops                                   10820962700                       # Number of ops (including micro ops) simulated
system.voltage_domain.voltage                       1                       # Voltage in Volts
system.clk_domain.clock                          1000                       # Clock period in ticks
system.mem_ctrls.pwrStateResidencyTicks::UNDEFINED  15267344125                       # Cumulative time (in ticks) in various power states
system.mem_ctrls.bytes_read::cpu0.inst            128                       # Number of bytes read from this memory
system.mem_ctrls.bytes_read::cpu0.data       11421568                       # Number of bytes read from this memory
system.mem_ctrls.bytes_read::total           11421696                       # Number of bytes read from this memory
system.mem_ctrls.bytes_inst_read::cpu0.inst          128                       # Number of instructions bytes read from this memory
system.mem_ctrls.bytes_inst_read::total           128                       # Number of instructions bytes read from this memory
system.mem_ctrls.bytes_written::writebacks        27200                       # Number of bytes written to this memory
system.mem_ctrls.bytes_written::total           27200                       # Number of bytes written to this memory
system.mem_ctrls.num_reads::cpu0.inst               2                       # Number of read requests responded to by this memory
system.mem_ctrls.num_reads::cpu0.data          178462                       # Number of read requests responded to by this memory
system.mem_ctrls.num_reads::total              178464                       # Number of read requests responded to by this memory
system.mem_ctrls.num_writes::writebacks           425                       # Number of write requests responded to by this memory
system.mem_ctrls.num_writes::total                425                       # Number of write requests responded to by this memory
system.mem_ctrls.bw_read::cpu0.inst              8384                       # Total read bandwidth from this memory (bytes/s)
system.mem_ctrls.bw_read::cpu0.data         748104445                       # Total read bandwidth from this memory (bytes/s)
system.mem_ctrls.bw_read::total             748112829                       # Total read bandwidth from this memory (bytes/s)
system.mem_ctrls.bw_inst_read::cpu0.inst         8384                       # Instruction read bandwidth from this memory (bytes/s)
system.mem_ctrls.bw_inst_read::total             8384                       # Instruction read bandwidth from this memory (bytes/s)
system.mem_ctrls.bw_write::writebacks         1781580                       # Write bandwidth from this memory (bytes/s)
system.mem_ctrls.bw_write::total              1781580                       # Write bandwidth from this memory (bytes/s)
system.mem_ctrls.bw_total::writebacks         1781580                       # Total bandwidth to/from this memory (bytes/s)
system.mem_ctrls.bw_total::cpu0.inst             8384                       # Total bandwidth to/from this memory (bytes/s)
system.mem_ctrls.bw_total::cpu0.data        748104445                       # Total bandwidth to/from this memory (bytes/s)
system.mem_ctrls.bw_total::total            749894409                       # Total bandwidth to/from this memory (bytes/s)
system.mem_ctrls.readReqs                      178462                       # Number of read requests accepted
system.mem_ctrls.writeReqs                        425                       # Number of write requests accepted
system.mem_ctrls.readBursts                    178462                       # Number of DRAM read bursts, including those serviced by the write queue
system.mem_ctrls.writeBursts                      425                       # Number of DRAM write bursts, including those merged in the write queue
system.mem_ctrls.bytesReadDRAM               11417856                       # Total number of bytes read from DRAM
system.mem_ctrls.bytesReadWrQ                    3712                       # Total number of bytes read from write queue
system.mem_ctrls.bytesWritten                   27776                       # Total number of bytes written to DRAM
system.mem_ctrls.bytesReadSys                11421568                       # Total read bytes from the system interface side
system.mem_ctrls.bytesWrittenSys                27200                       # Total written bytes from the system interface side
system.mem_ctrls.servicedByWrQ                     58                       # Number of DRAM read bursts serviced by the write queue
system.mem_ctrls.mergedWrBursts                     0                       # Number of DRAM write bursts merged with an existing one
system.mem_ctrls.neitherReadNorWriteReqs            0                       # Number of requests that are neither read nor write
system.mem_ctrls.perBankRdBursts::0             11013                       # Per bank write bursts
system.mem_ctrls.perBankRdBursts::1             11109                       # Per bank write bursts
system.mem_ctrls.perBankRdBursts::2             11096                       # Per bank write bursts
system.mem_ctrls.perBankRdBursts::3             11090                       # Per bank write bursts
system.mem_ctrls.perBankRdBursts::4             11120                       # Per bank write bursts
system.mem_ctrls.perBankRdBursts::5             11206                       # Per bank write bursts
system.mem_ctrls.perBankRdBursts::6             10959                       # Per bank write bursts
system.mem_ctrls.perBankRdBursts::7             11088                       # Per bank write bursts
system.mem_ctrls.perBankRdBursts::8             10914                       # Per bank write bursts
system.mem_ctrls.perBankRdBursts::9             10899                       # Per bank write bursts
system.mem_ctrls.perBankRdBursts::10            10776                       # Per bank write bursts
system.mem_ctrls.perBankRdBursts::11            11182                       # Per bank write bursts
system.mem_ctrls.perBankRdBursts::12            11738                       # Per bank write bursts
system.mem_ctrls.perBankRdBursts::13            11737                       # Per bank write bursts
system.mem_ctrls.perBankRdBursts::14            11407                       # Per bank write bursts
system.mem_ctrls.perBankRdBursts::15            11070                       # Per bank write bursts
system.mem_ctrls.perBankWrBursts::0                 0                       # Per bank write bursts
system.mem_ctrls.perBankWrBursts::1                 0                       # Per bank write bursts
system.mem_ctrls.perBankWrBursts::2                 1                       # Per bank write bursts
system.mem_ctrls.perBankWrBursts::3                87                       # Per bank write bursts
system.mem_ctrls.perBankWrBursts::4               129                       # Per bank write bursts
system.mem_ctrls.perBankWrBursts::5                94                       # Per bank write bursts
system.mem_ctrls.perBankWrBursts::6                21                       # Per bank write bursts
system.mem_ctrls.perBankWrBursts::7                 0                       # Per bank write bursts
system.mem_ctrls.perBankWrBursts::8                 0                       # Per bank write bursts
system.mem_ctrls.perBankWrBursts::9                 0                       # Per bank write bursts
system.mem_ctrls.perBankWrBursts::10                0                       # Per bank write bursts
system.mem_ctrls.perBankWrBursts::11                0                       # Per bank write bursts
system.mem_ctrls.perBankWrBursts::12              102                       # Per bank write bursts
system.mem_ctrls.perBankWrBursts::13                0                       # Per bank write bursts
system.mem_ctrls.perBankWrBursts::14                0                       # Per bank write bursts
system.mem_ctrls.perBankWrBursts::15                0                       # Per bank write bursts
system.mem_ctrls.numRdRetry                         0                       # Number of times read queue was full causing retry
system.mem_ctrls.numWrRetry                         0                       # Number of times write queue was full causing retry
system.mem_ctrls.totGap                   15267307500                       # Total gap between requests
system.mem_ctrls.readPktSize::0                     0                       # Read request sizes (log2)
system.mem_ctrls.readPktSize::1                     0                       # Read request sizes (log2)
system.mem_ctrls.readPktSize::2                     0                       # Read request sizes (log2)
system.mem_ctrls.readPktSize::3                     0                       # Read request sizes (log2)
system.mem_ctrls.readPktSize::4                     0                       # Read request sizes (log2)
system.mem_ctrls.readPktSize::5                     0                       # Read request sizes (log2)
system.mem_ctrls.readPktSize::6                178462                       # Read request sizes (log2)
system.mem_ctrls.writePktSize::0                    0                       # Write request sizes (log2)
system.mem_ctrls.writePktSize::1                    0                       # Write request sizes (log2)
system.mem_ctrls.writePktSize::2                    0                       # Write request sizes (log2)
system.mem_ctrls.writePktSize::3                    0                       # Write request sizes (log2)
system.mem_ctrls.writePktSize::4                    0                       # Write request sizes (log2)
system.mem_ctrls.writePktSize::5                    0                       # Write request sizes (log2)
system.mem_ctrls.writePktSize::6                  425                       # Write request sizes (log2)
system.mem_ctrls.rdQLenPdf::0                  137978                       # What read queue length does an incoming req see
system.mem_ctrls.rdQLenPdf::1                   38117                       # What read queue length does an incoming req see
system.mem_ctrls.rdQLenPdf::2                    2260                       # What read queue length does an incoming req see
system.mem_ctrls.rdQLenPdf::3                      49                       # What read queue length does an incoming req see
system.mem_ctrls.rdQLenPdf::4                       0                       # What read queue length does an incoming req see
system.mem_ctrls.rdQLenPdf::5                       0                       # What read queue length does an incoming req see
system.mem_ctrls.rdQLenPdf::6                       0                       # What read queue length does an incoming req see
system.mem_ctrls.rdQLenPdf::7                       0                       # What read queue length does an incoming req see
system.mem_ctrls.rdQLenPdf::8                       0                       # What read queue length does an incoming req see
system.mem_ctrls.rdQLenPdf::9                       0                       # What read queue length does an incoming req see
system.mem_ctrls.rdQLenPdf::10                      0                       # What read queue length does an incoming req see
system.mem_ctrls.rdQLenPdf::11                      0                       # What read queue length does an incoming req see
system.mem_ctrls.rdQLenPdf::12                      0                       # What read queue length does an incoming req see
system.mem_ctrls.rdQLenPdf::13                      0                       # What read queue length does an incoming req see
system.mem_ctrls.rdQLenPdf::14                      0                       # What read queue length does an incoming req see
system.mem_ctrls.rdQLenPdf::15                      0                       # What read queue length does an incoming req see
system.mem_ctrls.rdQLenPdf::16                      0                       # What read queue length does an incoming req see
system.mem_ctrls.rdQLenPdf::17                      0                       # What read queue length does an incoming req see
system.mem_ctrls.rdQLenPdf::18                      0                       # What read queue length does an incoming req see
system.mem_ctrls.rdQLenPdf::19                      0                       # What read queue length does an incoming req see
system.mem_ctrls.rdQLenPdf::20                      0                       # What read queue length does an incoming req see
system.mem_ctrls.rdQLenPdf::21                      0                       # What read queue length does an incoming req see
system.mem_ctrls.rdQLenPdf::22                      0                       # What read queue length does an incoming req see
system.mem_ctrls.rdQLenPdf::23                      0                       # What read queue length does an incoming req see
system.mem_ctrls.rdQLenPdf::24                      0                       # What read queue length does an incoming req see
system.mem_ctrls.rdQLenPdf::25                      0                       # What read queue length does an incoming req see
system.mem_ctrls.rdQLenPdf::26                      0                       # What read queue length does an incoming req see
system.mem_ctrls.rdQLenPdf::27                      0                       # What read queue length does an incoming req see
system.mem_ctrls.rdQLenPdf::28                      0                       # What read queue length does an incoming req see
system.mem_ctrls.rdQLenPdf::29                      0                       # What read queue length does an incoming req see
system.mem_ctrls.rdQLenPdf::30                      0                       # What read queue length does an incoming req see
system.mem_ctrls.rdQLenPdf::31                      0                       # What read queue length does an incoming req see
system.mem_ctrls.wrQLenPdf::0                       0                       # What write queue length does an incoming req see
system.mem_ctrls.wrQLenPdf::1                       0                       # What write queue length does an incoming req see
system.mem_ctrls.wrQLenPdf::2                       0                       # What write queue length does an incoming req see
system.mem_ctrls.wrQLenPdf::3                       0                       # What write queue length does an incoming req see
system.mem_ctrls.wrQLenPdf::4                       0                       # What write queue length does an incoming req see
system.mem_ctrls.wrQLenPdf::5                       0                       # What write queue length does an incoming req see
system.mem_ctrls.wrQLenPdf::6                       0                       # What write queue length does an incoming req see
system.mem_ctrls.wrQLenPdf::7                       0                       # What write queue length does an incoming req see
system.mem_ctrls.wrQLenPdf::8                       0                       # What write queue length does an incoming req see
system.mem_ctrls.wrQLenPdf::9                       0                       # What write queue length does an incoming req see
system.mem_ctrls.wrQLenPdf::10                      0                       # What write queue length does an incoming req see
system.mem_ctrls.wrQLenPdf::11                      0                       # What write queue length does an incoming req see
system.mem_ctrls.wrQLenPdf::12                      0                       # What write queue length does an incoming req see
system.mem_ctrls.wrQLenPdf::13                      0                       # What write queue length does an incoming req see
system.mem_ctrls.wrQLenPdf::14                      0                       # What write queue length does an incoming req see
system.mem_ctrls.wrQLenPdf::15                      1                       # What write queue length does an incoming req see
system.mem_ctrls.wrQLenPdf::16                      1                       # What write queue length does an incoming req see
system.mem_ctrls.wrQLenPdf::17                     27                       # What write queue length does an incoming req see
system.mem_ctrls.wrQLenPdf::18                     27                       # What write queue length does an incoming req see
system.mem_ctrls.wrQLenPdf::19                     27                       # What write queue length does an incoming req see
system.mem_ctrls.wrQLenPdf::20                     26                       # What write queue length does an incoming req see
system.mem_ctrls.wrQLenPdf::21                     26                       # What write queue length does an incoming req see
system.mem_ctrls.wrQLenPdf::22                     26                       # What write queue length does an incoming req see
system.mem_ctrls.wrQLenPdf::23                     26                       # What write queue length does an incoming req see
system.mem_ctrls.wrQLenPdf::24                     26                       # What write queue length does an incoming req see
system.mem_ctrls.wrQLenPdf::25                     26                       # What write queue length does an incoming req see
system.mem_ctrls.wrQLenPdf::26                     26                       # What write queue length does an incoming req see
system.mem_ctrls.wrQLenPdf::27                     26                       # What write queue length does an incoming req see
system.mem_ctrls.wrQLenPdf::28                     26                       # What write queue length does an incoming req see
system.mem_ctrls.wrQLenPdf::29                     27                       # What write queue length does an incoming req see
system.mem_ctrls.wrQLenPdf::30                     27                       # What write queue length does an incoming req see
system.mem_ctrls.wrQLenPdf::31                     27                       # What write queue length does an incoming req see
system.mem_ctrls.wrQLenPdf::32                     27                       # What write queue length does an incoming req see
system.mem_ctrls.wrQLenPdf::33                      0                       # What write queue length does an incoming req see
system.mem_ctrls.wrQLenPdf::34                      0                       # What write queue length does an incoming req see
system.mem_ctrls.wrQLenPdf::35                      0                       # What write queue length does an incoming req see
system.mem_ctrls.wrQLenPdf::36                      0                       # What write queue length does an incoming req see
system.mem_ctrls.wrQLenPdf::37                      0                       # What write queue length does an incoming req see
system.mem_ctrls.wrQLenPdf::38                      0                       # What write queue length does an incoming req see
system.mem_ctrls.wrQLenPdf::39                      0                       # What write queue length does an incoming req see
system.mem_ctrls.wrQLenPdf::40                      0                       # What write queue length does an incoming req see
system.mem_ctrls.wrQLenPdf::41                      0                       # What write queue length does an incoming req see
system.mem_ctrls.wrQLenPdf::42                      0                       # What write queue length does an incoming req see
system.mem_ctrls.wrQLenPdf::43                      0                       # What write queue length does an incoming req see
system.mem_ctrls.wrQLenPdf::44                      0                       # What write queue length does an incoming req see
system.mem_ctrls.wrQLenPdf::45                      0                       # What write queue length does an incoming req see
system.mem_ctrls.wrQLenPdf::46                      0                       # What write queue length does an incoming req see
system.mem_ctrls.wrQLenPdf::47                      0                       # What write queue length does an incoming req see
system.mem_ctrls.wrQLenPdf::48                      0                       # What write queue length does an incoming req see
system.mem_ctrls.wrQLenPdf::49                      0                       # What write queue length does an incoming req see
system.mem_ctrls.wrQLenPdf::50                      0                       # What write queue length does an incoming req see
system.mem_ctrls.wrQLenPdf::51                      0                       # What write queue length does an incoming req see
system.mem_ctrls.wrQLenPdf::52                      0                       # What write queue length does an incoming req see
system.mem_ctrls.wrQLenPdf::53                      0                       # What write queue length does an incoming req see
system.mem_ctrls.wrQLenPdf::54                      0                       # What write queue length does an incoming req see
system.mem_ctrls.wrQLenPdf::55                      0                       # What write queue length does an incoming req see
system.mem_ctrls.wrQLenPdf::56                      0                       # What write queue length does an incoming req see
system.mem_ctrls.wrQLenPdf::57                      0                       # What write queue length does an incoming req see
system.mem_ctrls.wrQLenPdf::58                      0                       # What write queue length does an incoming req see
system.mem_ctrls.wrQLenPdf::59                      0                       # What write queue length does an incoming req see
system.mem_ctrls.wrQLenPdf::60                      0                       # What write queue length does an incoming req see
system.mem_ctrls.wrQLenPdf::61                      0                       # What write queue length does an incoming req see
system.mem_ctrls.wrQLenPdf::62                      0                       # What write queue length does an incoming req see
system.mem_ctrls.wrQLenPdf::63                      0                       # What write queue length does an incoming req see
system.mem_ctrls.bytesPerActivate::samples        95877                       # Bytes accessed per row activation
system.mem_ctrls.bytesPerActivate::mean    119.372279                       # Bytes accessed per row activation
system.mem_ctrls.bytesPerActivate::gmean   103.153660                       # Bytes accessed per row activation
system.mem_ctrls.bytesPerActivate::stdev    71.673369                       # Bytes accessed per row activation
system.mem_ctrls.bytesPerActivate::0-127        47007     49.03%     49.03% # Bytes accessed per row activation
system.mem_ctrls.bytesPerActivate::128-255        40366     42.10%     91.13% # Bytes accessed per row activation
system.mem_ctrls.bytesPerActivate::256-383         7506      7.83%     98.96% # Bytes accessed per row activation
system.mem_ctrls.bytesPerActivate::384-511          901      0.94%     99.90% # Bytes accessed per row activation
system.mem_ctrls.bytesPerActivate::512-639           74      0.08%     99.98% # Bytes accessed per row activation
system.mem_ctrls.bytesPerActivate::640-767            9      0.01%     99.99% # Bytes accessed per row activation
system.mem_ctrls.bytesPerActivate::768-895            4      0.00%     99.99% # Bytes accessed per row activation
system.mem_ctrls.bytesPerActivate::896-1023            1      0.00%     99.99% # Bytes accessed per row activation
system.mem_ctrls.bytesPerActivate::1024-1151            9      0.01%    100.00% # Bytes accessed per row activation
system.mem_ctrls.bytesPerActivate::total        95877                       # Bytes accessed per row activation
system.mem_ctrls.rdPerTurnAround::samples           27                       # Reads before turning the bus around for writes
system.mem_ctrls.rdPerTurnAround::mean    6737.888889                       # Reads before turning the bus around for writes
system.mem_ctrls.rdPerTurnAround::gmean   6556.359029                       # Reads before turning the bus around for writes
system.mem_ctrls.rdPerTurnAround::stdev   1538.696535                       # Reads before turning the bus around for writes
system.mem_ctrls.rdPerTurnAround::3072-3583            1      3.70%      3.70% # Reads before turning the bus around for writes
system.mem_ctrls.rdPerTurnAround::4096-4607            2      7.41%     11.11% # Reads before turning the bus around for writes
system.mem_ctrls.rdPerTurnAround::4608-5119            1      3.70%     14.81% # Reads before turning the bus around for writes
system.mem_ctrls.rdPerTurnAround::5120-5631            1      3.70%     18.52% # Reads before turning the bus around for writes
system.mem_ctrls.rdPerTurnAround::5632-6143            4     14.81%     33.33% # Reads before turning the bus around for writes
system.mem_ctrls.rdPerTurnAround::6144-6655            4     14.81%     48.15% # Reads before turning the bus around for writes
system.mem_ctrls.rdPerTurnAround::6656-7167            5     18.52%     66.67% # Reads before turning the bus around for writes
system.mem_ctrls.rdPerTurnAround::7168-7679            2      7.41%     74.07% # Reads before turning the bus around for writes
system.mem_ctrls.rdPerTurnAround::7680-8191            3     11.11%     85.19% # Reads before turning the bus around for writes
system.mem_ctrls.rdPerTurnAround::8192-8703            1      3.70%     88.89% # Reads before turning the bus around for writes
system.mem_ctrls.rdPerTurnAround::8704-9215            1      3.70%     92.59% # Reads before turning the bus around for writes
system.mem_ctrls.rdPerTurnAround::9216-9727            1      3.70%     96.30% # Reads before turning the bus around for writes
system.mem_ctrls.rdPerTurnAround::9728-10239            1      3.70%    100.00% # Reads before turning the bus around for writes
system.mem_ctrls.rdPerTurnAround::total            27                       # Reads before turning the bus around for writes
system.mem_ctrls.wrPerTurnAround::samples           27                       # Writes before turning the bus around for reads
system.mem_ctrls.wrPerTurnAround::mean      16.074074                       # Writes before turning the bus around for reads
system.mem_ctrls.wrPerTurnAround::gmean     16.069950                       # Writes before turning the bus around for reads
system.mem_ctrls.wrPerTurnAround::stdev      0.384900                       # Writes before turning the bus around for reads
system.mem_ctrls.wrPerTurnAround::16               26     96.30%     96.30% # Writes before turning the bus around for reads
system.mem_ctrls.wrPerTurnAround::18                1      3.70%    100.00% # Writes before turning the bus around for reads
system.mem_ctrls.wrPerTurnAround::total            27                       # Writes before turning the bus around for reads
system.mem_ctrls.totQLat                   4507907750                       # Total ticks spent queuing
system.mem_ctrls.totMemAccLat              7852982750                       # Total ticks spent from burst creation until serviced by the DRAM
system.mem_ctrls.totBusLat                  892020000                       # Total ticks spent in databus transfers
system.mem_ctrls.avgQLat                     25267.97                       # Average queueing delay per DRAM burst
system.mem_ctrls.avgBusLat                    5000.00                       # Average bus latency per DRAM burst
system.mem_ctrls.avgMemAccLat                44017.97                       # Average memory access latency per DRAM burst
system.mem_ctrls.avgRdBW                       747.86                       # Average DRAM read bandwidth in MiByte/s
system.mem_ctrls.avgWrBW                         1.82                       # Average achieved write bandwidth in MiByte/s
system.mem_ctrls.avgRdBWSys                    748.10                       # Average system read bandwidth in MiByte/s
system.mem_ctrls.avgWrBWSys                      1.78                       # Average system write bandwidth in MiByte/s
system.mem_ctrls.peakBW                      12800.00                       # Theoretical peak bandwidth in MiByte/s
system.mem_ctrls.busUtil                         5.86                       # Data bus utilization in percentage
system.mem_ctrls.busUtilRead                     5.84                       # Data bus utilization in percentage for reads
system.mem_ctrls.busUtilWrite                    0.01                       # Data bus utilization in percentage for writes
system.mem_ctrls.avgRdQLen                       1.28                       # Average read queue length when enqueuing
system.mem_ctrls.avgWrQLen                      25.43                       # Average write queue length when enqueuing
system.mem_ctrls.readRowHits                    82590                       # Number of row buffer hits during reads
system.mem_ctrls.writeRowHits                     371                       # Number of row buffer hits during writes
system.mem_ctrls.readRowHitRate                 46.29                       # Row buffer hit rate for reads
system.mem_ctrls.writeRowHitRate                87.29                       # Row buffer hit rate for writes
system.mem_ctrls.avgGap                      85346.10                       # Average gap between requests
system.mem_ctrls.pageHitRate                    46.39                       # Row buffer hit rate, read and write combined
system.mem_ctrls_0.actEnergy                341270580                       # Energy for activate commands per rank (pJ)
system.mem_ctrls_0.preEnergy                181389615                       # Energy for precharge commands per rank (pJ)
system.mem_ctrls_0.readEnergy               633182340                       # Energy for read commands per rank (pJ)
system.mem_ctrls_0.writeEnergy                1733040                       # Energy for write commands per rank (pJ)
system.mem_ctrls_0.refreshEnergy         1205923680.000000                       # Energy for refresh commands per rank (pJ)
system.mem_ctrls_0.actBackEnergy           1549385970                       # Energy for active background per rank (pJ)
system.mem_ctrls_0.preBackEnergy             24974880                       # Energy for precharge background per rank (pJ)
system.mem_ctrls_0.actPowerDownEnergy      5233164300                       # Energy for active power-down per rank (pJ)
system.mem_ctrls_0.prePowerDownEnergy       119704800                       # Energy for precharge power-down per rank (pJ)
system.mem_ctrls_0.selfRefreshEnergy          6183660                       # Energy for self refresh per rank (pJ)
system.mem_ctrls_0.totalEnergy             9296912865                       # Total energy per rank (pJ)
system.mem_ctrls_0.averagePower            608.941070                       # Core power per rank (mW)
system.mem_ctrls_0.totalIdleTime          11804969250                       # Total Idle time Per DRAM Rank
system.mem_ctrls_0.memoryStateTime::IDLE     10656000                       # Time in different power states
system.mem_ctrls_0.memoryStateTime::REF     510144000                       # Time in different power states
system.mem_ctrls_0.memoryStateTime::SREF     16561750                       # Time in different power states
system.mem_ctrls_0.memoryStateTime::PRE_PDN    311706250                       # Time in different power states
system.mem_ctrls_0.memoryStateTime::ACT    2941525250                       # Time in different power states
system.mem_ctrls_0.memoryStateTime::ACT_PDN  11476750875                       # Time in different power states
system.mem_ctrls_1.actEnergy                343291200                       # Energy for activate commands per rank (pJ)
system.mem_ctrls_1.preEnergy                182463600                       # Energy for precharge commands per rank (pJ)
system.mem_ctrls_1.readEnergy               640622220                       # Energy for read commands per rank (pJ)
system.mem_ctrls_1.writeEnergy                 532440                       # Energy for write commands per rank (pJ)
system.mem_ctrls_1.refreshEnergy         1205923680.000000                       # Energy for refresh commands per rank (pJ)
system.mem_ctrls_1.actBackEnergy           1561774920                       # Energy for active background per rank (pJ)
system.mem_ctrls_1.preBackEnergy             24980160                       # Energy for precharge background per rank (pJ)
system.mem_ctrls_1.actPowerDownEnergy      5219104680                       # Energy for active power-down per rank (pJ)
system.mem_ctrls_1.prePowerDownEnergy       120189600                       # Energy for precharge power-down per rank (pJ)
system.mem_ctrls_1.selfRefreshEnergy          6756660                       # Energy for self refresh per rank (pJ)
system.mem_ctrls_1.totalEnergy             9305639160                       # Total energy per rank (pJ)
system.mem_ctrls_1.averagePower            609.512636                       # Core power per rank (mW)
system.mem_ctrls_1.totalIdleTime          11776657750                       # Total Idle time Per DRAM Rank
system.mem_ctrls_1.memoryStateTime::IDLE     10584000                       # Time in different power states
system.mem_ctrls_1.memoryStateTime::REF     510144000                       # Time in different power states
system.mem_ctrls_1.memoryStateTime::SREF     18949250                       # Time in different power states
system.mem_ctrls_1.memoryStateTime::PRE_PDN    312911000                       # Time in different power states
system.mem_ctrls_1.memoryStateTime::ACT    2968712750                       # Time in different power states
system.mem_ctrls_1.memoryStateTime::ACT_PDN  11446043125                       # Time in different power states
system.pwrStateResidencyTicks::UNDEFINED  15267344125                       # Cumulative time (in ticks) in various power states
system.cpu0.branchPred.lookups                1693927                       # Number of BP lookups
system.cpu0.branchPred.condPredicted          1693927                       # Number of conditional branches predicted
system.cpu0.branchPred.condIncorrect            67379                       # Number of conditional branches incorrect
system.cpu0.branchPred.BTBLookups             1289519                       # Number of BTB lookups
system.cpu0.branchPred.BTBHits                      0                       # Number of BTB hits
system.cpu0.branchPred.BTBCorrect                   0                       # Number of correct BTB predictions (this stat may not work properly.
system.cpu0.branchPred.BTBHitPct             0.000000                       # BTB Hit Percentage
system.cpu0.branchPred.usedRAS                  46400                       # Number of times the RAS was used to get a target.
system.cpu0.branchPred.RASInCorrect              6639                       # Number of incorrect RAS predictions.
system.cpu0.branchPred.indirectLookups        1289519                       # Number of indirect predictor lookups.
system.cpu0.branchPred.indirectHits            732324                       # Number of indirect target hits.
system.cpu0.branchPred.indirectMisses          557195                       # Number of indirect misses.
system.cpu0.branchPredindirectMispredicted        22099                       # Number of mispredicted indirect branches.
system.cpu_voltage_domain.voltage                   1                       # Voltage in Volts
system.cpu_clk_domain.clock                       500                       # Clock period in ticks
system.cpu0.dtb.walker.pwrStateResidencyTicks::UNDEFINED  15267344125                       # Cumulative time (in ticks) in various power states
system.cpu0.dtb.rdAccesses                     853312                       # TLB accesses on read requests
system.cpu0.dtb.wrAccesses                      57260                       # TLB accesses on write requests
system.cpu0.dtb.rdMisses                       191307                       # TLB misses on read requests
system.cpu0.dtb.wrMisses                         1076                       # TLB misses on write requests
system.cpu0.apic_clk_domain.clock                8000                       # Clock period in ticks
system.cpu0.interrupts.pwrStateResidencyTicks::UNDEFINED  15267344125                       # Cumulative time (in ticks) in various power states
system.cpu0.itb.walker.pwrStateResidencyTicks::UNDEFINED  15267344125                       # Cumulative time (in ticks) in various power states
system.cpu0.itb.rdAccesses                          0                       # TLB accesses on read requests
system.cpu0.itb.wrAccesses                    1433104                       # TLB accesses on write requests
system.cpu0.itb.rdMisses                            0                       # TLB misses on read requests
system.cpu0.itb.wrMisses                         3561                       # TLB misses on write requests
system.cpu0.workload.numSyscalls                    0                       # Number of system calls
system.cpu0.pwrStateResidencyTicks::ON    15267344125                       # Cumulative time (in ticks) in various power states
system.cpu0.numCycles                        30534688                       # number of cpu cycles simulated
system.cpu0.numWorkItemsStarted                     0                       # number of work items this cpu started
system.cpu0.numWorkItemsCompleted                   0                       # number of work items this cpu completed
system.cpu0.fetch.icacheStallCycles           1464302                       # Number of cycles fetch is stalled on an Icache miss
system.cpu0.fetch.Insts                       4923892                       # Number of instructions fetch has processed
system.cpu0.fetch.Branches                    1693927                       # Number of branches that fetch encountered
system.cpu0.fetch.predictedBranches            778724                       # Number of branches that fetch has predicted taken
system.cpu0.fetch.Cycles                     28935867                       # Number of cycles fetch has run and was not squashing or blocked
system.cpu0.fetch.SquashCycles                 136984                       # Number of cycles fetch has spent squashing
system.cpu0.fetch.TlbCycles                       717                       # Number of cycles fetch has spent waiting for tlb
system.cpu0.fetch.MiscStallCycles                 787                       # Number of cycles fetch has spent waiting on interrupts, or bad addresses, or out of MSHRs
system.cpu0.fetch.PendingTrapStallCycles        30959                       # Number of stall cycles due to pending traps
system.cpu0.fetch.CacheLines                  1429544                       # Number of cache lines fetched
system.cpu0.fetch.IcacheSquashes                 8651                       # Number of outstanding Icache misses that were squashed
system.cpu0.fetch.rateDist::samples          30501124                       # Number of instructions fetched each cycle (Total)
system.cpu0.fetch.rateDist::mean             0.324726                       # Number of instructions fetched each cycle (Total)
system.cpu0.fetch.rateDist::stdev            1.428892                       # Number of instructions fetched each cycle (Total)
system.cpu0.fetch.rateDist::underflows              0      0.00%      0.00% # Number of instructions fetched each cycle (Total)
system.cpu0.fetch.rateDist::0                28567089     93.66%     93.66% # Number of instructions fetched each cycle (Total)
system.cpu0.fetch.rateDist::1                   20755      0.07%     93.73% # Number of instructions fetched each cycle (Total)
system.cpu0.fetch.rateDist::2                  718077      2.35%     96.08% # Number of instructions fetched each cycle (Total)
system.cpu0.fetch.rateDist::3                   27644      0.09%     96.17% # Number of instructions fetched each cycle (Total)
system.cpu0.fetch.rateDist::4                  138994      0.46%     96.63% # Number of instructions fetched each cycle (Total)
system.cpu0.fetch.rateDist::5                   66004      0.22%     96.84% # Number of instructions fetched each cycle (Total)
system.cpu0.fetch.rateDist::6                   99423      0.33%     97.17% # Number of instructions fetched each cycle (Total)
system.cpu0.fetch.rateDist::7                   22970      0.08%     97.25% # Number of instructions fetched each cycle (Total)
system.cpu0.fetch.rateDist::8                  840168      2.75%    100.00% # Number of instructions fetched each cycle (Total)
system.cpu0.fetch.rateDist::overflows               0      0.00%    100.00% # Number of instructions fetched each cycle (Total)
system.cpu0.fetch.rateDist::min_value               0                       # Number of instructions fetched each cycle (Total)
system.cpu0.fetch.rateDist::max_value               8                       # Number of instructions fetched each cycle (Total)
system.cpu0.fetch.rateDist::total            30501124                       # Number of instructions fetched each cycle (Total)
system.cpu0.fetch.branchRate                 0.055475                       # Number of branch fetches per cycle
system.cpu0.fetch.rate                       0.161256                       # Number of inst fetches per cycle
system.cpu0.decode.IdleCycles                  703789                       # Number of cycles decode is idle
system.cpu0.decode.BlockedCycles             28465621                       # Number of cycles decode is blocked
system.cpu0.decode.RunCycles                   900617                       # Number of cycles decode is running
system.cpu0.decode.UnblockCycles               362605                       # Number of cycles decode is unblocking
system.cpu0.decode.SquashCycles                 68492                       # Number of cycles decode is squashing
system.cpu0.decode.DecodedInsts               8285567                       # Number of instructions handled by decode
system.cpu0.rename.SquashCycles                 68492                       # Number of cycles rename is squashing
system.cpu0.rename.IdleCycles                  817108                       # Number of cycles rename is idle
system.cpu0.rename.BlockCycles               27043618                       # Number of cycles rename is blocking
system.cpu0.rename.serializeStallCycles         11793                       # count of cycles rename stalled for serializing inst
system.cpu0.rename.RunCycles                  1065512                       # Number of cycles rename is running
system.cpu0.rename.UnblockCycles              1494601                       # Number of cycles rename is unblocking
system.cpu0.rename.RenamedInsts               7965803                       # Number of instructions processed by rename
system.cpu0.rename.ROBFullEvents                60900                       # Number of times rename has blocked due to ROB full
system.cpu0.rename.IQFullEvents               1230029                       # Number of times rename has blocked due to IQ full
system.cpu0.rename.LQFullEvents                200755                       # Number of times rename has blocked due to LQ full
system.cpu0.rename.SQFullEvents                  4357                       # Number of times rename has blocked due to SQ full
system.cpu0.rename.RenamedOperands            9517078                       # Number of destination operands rename has renamed
system.cpu0.rename.RenameLookups             22208162                       # Number of register rename lookups that rename has made
system.cpu0.rename.int_rename_lookups        10438802                       # Number of integer rename lookups
system.cpu0.rename.fp_rename_lookups            47654                       # Number of floating rename lookups
system.cpu0.rename.CommittedMaps              3806985                       # Number of HB maps that are committed
system.cpu0.rename.UndoneMaps                 5710098                       # Number of HB maps that are undone due to squashing
system.cpu0.rename.serializingInsts               230                       # count of serializing insts renamed
system.cpu0.rename.tempSerializingInsts           291                       # count of temporary serializing insts renamed
system.cpu0.rename.skidInsts                  2309648                       # count of insts added to the skid buffer
system.cpu0.memDep0.insertedLoads             1429465                       # Number of loads inserted to the mem dependence unit.
system.cpu0.memDep0.insertedStores              82414                       # Number of stores inserted to the mem dependence unit.
system.cpu0.memDep0.conflictingLoads             4945                       # Number of conflicting loads.
system.cpu0.memDep0.conflictingStores            5023                       # Number of conflicting stores.
system.cpu0.iq.iqInstsAdded                   7576761                       # Number of instructions added to the IQ (excludes non-spec)
system.cpu0.iq.iqNonSpecInstsAdded               4802                       # Number of non-speculative instructions added to the IQ
system.cpu0.iq.iqInstsIssued                  5575646                       # Number of instructions issued
system.cpu0.iq.iqSquashedInstsIssued             7803                       # Number of squashed instructions issued
system.cpu0.iq.iqSquashedInstsExamined        4414250                       # Number of squashed instructions iterated over during squash; mainly for profiling
system.cpu0.iq.iqSquashedOperandsExamined      9214410                       # Number of squashed operands that are examined and possibly removed from graph
system.cpu0.iq.iqSquashedNonSpecRemoved          4802                       # Number of squashed non-spec instructions that were removed
system.cpu0.iq.issued_per_cycle::samples     30501124                       # Number of insts issued each cycle
system.cpu0.iq.issued_per_cycle::mean        0.182801                       # Number of insts issued each cycle
system.cpu0.iq.issued_per_cycle::stdev       0.771617                       # Number of insts issued each cycle
system.cpu0.iq.issued_per_cycle::underflows            0      0.00%      0.00% # Number of insts issued each cycle
system.cpu0.iq.issued_per_cycle::0           28162231     92.33%     92.33% # Number of insts issued each cycle
system.cpu0.iq.issued_per_cycle::1             958353      3.14%     95.47% # Number of insts issued each cycle
system.cpu0.iq.issued_per_cycle::2             497802      1.63%     97.11% # Number of insts issued each cycle
system.cpu0.iq.issued_per_cycle::3             343720      1.13%     98.23% # Number of insts issued each cycle
system.cpu0.iq.issued_per_cycle::4             309999      1.02%     99.25% # Number of insts issued each cycle
system.cpu0.iq.issued_per_cycle::5              97237      0.32%     99.57% # Number of insts issued each cycle
system.cpu0.iq.issued_per_cycle::6              80010      0.26%     99.83% # Number of insts issued each cycle
system.cpu0.iq.issued_per_cycle::7              29888      0.10%     99.93% # Number of insts issued each cycle
system.cpu0.iq.issued_per_cycle::8              21884      0.07%    100.00% # Number of insts issued each cycle
system.cpu0.iq.issued_per_cycle::overflows            0      0.00%    100.00% # Number of insts issued each cycle
system.cpu0.iq.issued_per_cycle::min_value            0                       # Number of insts issued each cycle
system.cpu0.iq.issued_per_cycle::max_value            8                       # Number of insts issued each cycle
system.cpu0.iq.issued_per_cycle::total       30501124                       # Number of insts issued each cycle
system.cpu0.iq.fu_full::No_OpClass                  0      0.00%      0.00% # attempts to use FU when none available
system.cpu0.iq.fu_full::IntAlu                  12755     68.48%     68.48% # attempts to use FU when none available
system.cpu0.iq.fu_full::IntMult                     0      0.00%     68.48% # attempts to use FU when none available
system.cpu0.iq.fu_full::IntDiv                      0      0.00%     68.48% # attempts to use FU when none available
system.cpu0.iq.fu_full::FloatAdd                 1355      7.27%     75.75% # attempts to use FU when none available
system.cpu0.iq.fu_full::FloatCmp                    0      0.00%     75.75% # attempts to use FU when none available
system.cpu0.iq.fu_full::FloatCvt                    0      0.00%     75.75% # attempts to use FU when none available
system.cpu0.iq.fu_full::FloatMult                   0      0.00%     75.75% # attempts to use FU when none available
system.cpu0.iq.fu_full::FloatMultAcc                0      0.00%     75.75% # attempts to use FU when none available
system.cpu0.iq.fu_full::FloatDiv                    0      0.00%     75.75% # attempts to use FU when none available
system.cpu0.iq.fu_full::FloatMisc                   0      0.00%     75.75% # attempts to use FU when none available
system.cpu0.iq.fu_full::FloatSqrt                   0      0.00%     75.75% # attempts to use FU when none available
system.cpu0.iq.fu_full::SimdAdd                     0      0.00%     75.75% # attempts to use FU when none available
system.cpu0.iq.fu_full::SimdAddAcc                  0      0.00%     75.75% # attempts to use FU when none available
system.cpu0.iq.fu_full::SimdAlu                     0      0.00%     75.75% # attempts to use FU when none available
system.cpu0.iq.fu_full::SimdCmp                     0      0.00%     75.75% # attempts to use FU when none available
system.cpu0.iq.fu_full::SimdCvt                     0      0.00%     75.75% # attempts to use FU when none available
system.cpu0.iq.fu_full::SimdMisc                    0      0.00%     75.75% # attempts to use FU when none available
system.cpu0.iq.fu_full::SimdMult                    0      0.00%     75.75% # attempts to use FU when none available
system.cpu0.iq.fu_full::SimdMultAcc                 0      0.00%     75.75% # attempts to use FU when none available
system.cpu0.iq.fu_full::SimdShift                   0      0.00%     75.75% # attempts to use FU when none available
system.cpu0.iq.fu_full::SimdShiftAcc                0      0.00%     75.75% # attempts to use FU when none available
system.cpu0.iq.fu_full::SimdSqrt                    0      0.00%     75.75% # attempts to use FU when none available
system.cpu0.iq.fu_full::SimdFloatAdd                0      0.00%     75.75% # attempts to use FU when none available
system.cpu0.iq.fu_full::SimdFloatAlu                0      0.00%     75.75% # attempts to use FU when none available
system.cpu0.iq.fu_full::SimdFloatCmp                0      0.00%     75.75% # attempts to use FU when none available
system.cpu0.iq.fu_full::SimdFloatCvt                0      0.00%     75.75% # attempts to use FU when none available
system.cpu0.iq.fu_full::SimdFloatDiv                0      0.00%     75.75% # attempts to use FU when none available
system.cpu0.iq.fu_full::SimdFloatMisc               0      0.00%     75.75% # attempts to use FU when none available
system.cpu0.iq.fu_full::SimdFloatMult               0      0.00%     75.75% # attempts to use FU when none available
system.cpu0.iq.fu_full::SimdFloatMultAcc            0      0.00%     75.75% # attempts to use FU when none available
system.cpu0.iq.fu_full::SimdFloatSqrt               0      0.00%     75.75% # attempts to use FU when none available
system.cpu0.iq.fu_full::MemRead                  4047     21.73%     97.48% # attempts to use FU when none available
system.cpu0.iq.fu_full::MemWrite                  286      1.54%     99.02% # attempts to use FU when none available
system.cpu0.iq.fu_full::FloatMemRead              172      0.92%     99.94% # attempts to use FU when none available
system.cpu0.iq.fu_full::FloatMemWrite              11      0.06%    100.00% # attempts to use FU when none available
system.cpu0.iq.fu_full::IprAccess                   0      0.00%    100.00% # attempts to use FU when none available
system.cpu0.iq.fu_full::InstPrefetch                0      0.00%    100.00% # attempts to use FU when none available
system.cpu0.iq.FU_type_0::No_OpClass            17228      0.31%      0.31% # Type of FU issued
system.cpu0.iq.FU_type_0::IntAlu              4576021     82.07%     82.38% # Type of FU issued
system.cpu0.iq.FU_type_0::IntMult                 967      0.02%     82.40% # Type of FU issued
system.cpu0.iq.FU_type_0::IntDiv                11775      0.21%     82.61% # Type of FU issued
system.cpu0.iq.FU_type_0::FloatAdd              17410      0.31%     82.92% # Type of FU issued
system.cpu0.iq.FU_type_0::FloatCmp                  0      0.00%     82.92% # Type of FU issued
system.cpu0.iq.FU_type_0::FloatCvt                  0      0.00%     82.92% # Type of FU issued
system.cpu0.iq.FU_type_0::FloatMult                 0      0.00%     82.92% # Type of FU issued
system.cpu0.iq.FU_type_0::FloatMultAcc              0      0.00%     82.92% # Type of FU issued
system.cpu0.iq.FU_type_0::FloatDiv                  0      0.00%     82.92% # Type of FU issued
system.cpu0.iq.FU_type_0::FloatMisc                 0      0.00%     82.92% # Type of FU issued
system.cpu0.iq.FU_type_0::FloatSqrt                 0      0.00%     82.92% # Type of FU issued
system.cpu0.iq.FU_type_0::SimdAdd                   0      0.00%     82.92% # Type of FU issued
system.cpu0.iq.FU_type_0::SimdAddAcc                0      0.00%     82.92% # Type of FU issued
system.cpu0.iq.FU_type_0::SimdAlu                   0      0.00%     82.92% # Type of FU issued
system.cpu0.iq.FU_type_0::SimdCmp                   0      0.00%     82.92% # Type of FU issued
system.cpu0.iq.FU_type_0::SimdCvt                   0      0.00%     82.92% # Type of FU issued
system.cpu0.iq.FU_type_0::SimdMisc                  0      0.00%     82.92% # Type of FU issued
system.cpu0.iq.FU_type_0::SimdMult                  0      0.00%     82.92% # Type of FU issued
system.cpu0.iq.FU_type_0::SimdMultAcc               0      0.00%     82.92% # Type of FU issued
system.cpu0.iq.FU_type_0::SimdShift                 0      0.00%     82.92% # Type of FU issued
system.cpu0.iq.FU_type_0::SimdShiftAcc              0      0.00%     82.92% # Type of FU issued
system.cpu0.iq.FU_type_0::SimdSqrt                  0      0.00%     82.92% # Type of FU issued
system.cpu0.iq.FU_type_0::SimdFloatAdd              0      0.00%     82.92% # Type of FU issued
system.cpu0.iq.FU_type_0::SimdFloatAlu              0      0.00%     82.92% # Type of FU issued
system.cpu0.iq.FU_type_0::SimdFloatCmp              0      0.00%     82.92% # Type of FU issued
system.cpu0.iq.FU_type_0::SimdFloatCvt              0      0.00%     82.92% # Type of FU issued
system.cpu0.iq.FU_type_0::SimdFloatDiv              0      0.00%     82.92% # Type of FU issued
system.cpu0.iq.FU_type_0::SimdFloatMisc             0      0.00%     82.92% # Type of FU issued
system.cpu0.iq.FU_type_0::SimdFloatMult             0      0.00%     82.92% # Type of FU issued
system.cpu0.iq.FU_type_0::SimdFloatMultAcc            0      0.00%     82.92% # Type of FU issued
system.cpu0.iq.FU_type_0::SimdFloatSqrt             0      0.00%     82.92% # Type of FU issued
system.cpu0.iq.FU_type_0::MemRead              887583     15.92%     98.84% # Type of FU issued
system.cpu0.iq.FU_type_0::MemWrite              61294      1.10%     99.94% # Type of FU issued
system.cpu0.iq.FU_type_0::FloatMemRead           3344      0.06%    100.00% # Type of FU issued
system.cpu0.iq.FU_type_0::FloatMemWrite            24      0.00%    100.00% # Type of FU issued
system.cpu0.iq.FU_type_0::IprAccess                 0      0.00%    100.00% # Type of FU issued
system.cpu0.iq.FU_type_0::InstPrefetch              0      0.00%    100.00% # Type of FU issued
system.cpu0.iq.FU_type_0::total               5575646                       # Type of FU issued
system.cpu0.iq.rate                          0.182600                       # Inst issue rate
system.cpu0.iq.fu_busy_cnt                      18626                       # FU busy when requested
system.cpu0.iq.fu_busy_rate                  0.003341                       # FU busy rate (busy events/executed inst)
system.cpu0.iq.int_inst_queue_reads          41635523                       # Number of integer instruction queue reads
system.cpu0.iq.int_inst_queue_writes         11954478                       # Number of integer instruction queue writes
system.cpu0.iq.int_inst_queue_wakeup_accesses      5357764                       # Number of integer instruction queue wakeup accesses
system.cpu0.iq.fp_inst_queue_reads              43322                       # Number of floating instruction queue reads
system.cpu0.iq.fp_inst_queue_writes             41350                       # Number of floating instruction queue writes
system.cpu0.iq.fp_inst_queue_wakeup_accesses        19036                       # Number of floating instruction queue wakeup accesses
system.cpu0.iq.vec_inst_queue_reads                 0                       # Number of vector instruction queue reads
system.cpu0.iq.vec_inst_queue_writes                0                       # Number of vector instruction queue writes
system.cpu0.iq.vec_inst_queue_wakeup_accesses            0                       # Number of vector instruction queue wakeup accesses
system.cpu0.iq.int_alu_accesses               5554727                       # Number of integer alu accesses
system.cpu0.iq.fp_alu_accesses                  22317                       # Number of floating point alu accesses
system.cpu0.iq.vec_alu_accesses                     0                       # Number of vector alu accesses
system.cpu0.iew.lsq.thread0.forwLoads            6036                       # Number of loads that had data forwarded from stores
system.cpu0.iew.lsq.thread0.invAddrLoads            0                       # Number of loads ignored due to an invalid address
system.cpu0.iew.lsq.thread0.squashedLoads       836721                       # Number of loads squashed
system.cpu0.iew.lsq.thread0.ignoredResponses          156                       # Number of memory responses ignored because the instruction is squashed
system.cpu0.iew.lsq.thread0.memOrderViolation           15                       # Number of memory ordering violations
system.cpu0.iew.lsq.thread0.squashedStores        49020                       # Number of stores squashed
system.cpu0.iew.lsq.thread0.invAddrSwpfs            0                       # Number of software prefetches ignored due to an invalid address
system.cpu0.iew.lsq.thread0.blockedLoads            0                       # Number of blocked loads due to partial load-store forwarding
system.cpu0.iew.lsq.thread0.rescheduledLoads           53                       # Number of loads that were rescheduled
system.cpu0.iew.lsq.thread0.cacheBlocked         2207                       # Number of times an access to memory failed due to the cache being blocked
system.cpu0.iew.iewIdleCycles                       0                       # Number of cycles IEW is idle
system.cpu0.iew.iewSquashCycles                 68492                       # Number of cycles IEW is squashing
system.cpu0.iew.iewBlockCycles               25075521                       # Number of cycles IEW is blocking
system.cpu0.iew.iewUnblockCycles               286040                       # Number of cycles IEW is unblocking
system.cpu0.iew.iewDispatchedInsts            7581563                       # Number of instructions dispatched to IQ
system.cpu0.iew.iewDispSquashedInsts             3937                       # Number of squashed instructions skipped by dispatch
system.cpu0.iew.iewDispLoadInsts              1429465                       # Number of dispatched load instructions
system.cpu0.iew.iewDispStoreInsts               82414                       # Number of dispatched store instructions
system.cpu0.iew.iewDispNonSpecInsts              1758                       # Number of dispatched non-speculative instructions
system.cpu0.iew.iewIQFullEvents                 17289                       # Number of times the IQ has become full, causing a stall
system.cpu0.iew.iewLSQFullEvents                46153                       # Number of times the LSQ has become full, causing a stall
system.cpu0.iew.memOrderViolationEvents            15                       # Number of memory order violations
system.cpu0.iew.predictedTakenIncorrect         37162                       # Number of branches that were predicted taken incorrectly
system.cpu0.iew.predictedNotTakenIncorrect        38962                       # Number of branches that were predicted not taken incorrectly
system.cpu0.iew.branchMispredicts               76124                       # Number of branch mispredicts detected at execute
system.cpu0.iew.iewExecutedInsts              5479835                       # Number of executed instructions
system.cpu0.iew.iewExecLoadInsts               853018                       # Number of load instructions executed
system.cpu0.iew.iewExecSquashedInsts            95811                       # Number of squashed instructions skipped in execute
system.cpu0.iew.exec_swp                            0                       # number of swp insts executed
system.cpu0.iew.exec_nop                            0                       # number of nop insts executed
system.cpu0.iew.exec_refs                      910253                       # number of memory reference insts executed
system.cpu0.iew.exec_branches                  691803                       # Number of branches executed
system.cpu0.iew.exec_stores                     57235                       # Number of stores executed
system.cpu0.iew.exec_rate                    0.179463                       # Inst execution rate
system.cpu0.iew.wb_sent                       5393829                       # cumulative count of insts sent to commit
system.cpu0.iew.wb_count                      5376800                       # cumulative count of insts written-back
system.cpu0.iew.wb_producers                  3898622                       # num instructions producing a value
system.cpu0.iew.wb_consumers                  6333667                       # num instructions consuming a value
system.cpu0.iew.wb_rate                      0.176088                       # insts written-back per cycle
system.cpu0.iew.wb_fanout                    0.615539                       # average fanout of values written-back
system.cpu0.commit.commitSquashedInsts        4414777                       # The number of squashed insts skipped by commit
system.cpu0.commit.branchMispredicts            68483                       # The number of times a branch was mispredicted
system.cpu0.commit.committed_per_cycle::samples     29878360                       # Number of insts commited each cycle
system.cpu0.commit.committed_per_cycle::mean     0.106007                       # Number of insts commited each cycle
system.cpu0.commit.committed_per_cycle::stdev     0.602611                       # Number of insts commited each cycle
system.cpu0.commit.committed_per_cycle::underflows            0      0.00%      0.00% # Number of insts commited each cycle
system.cpu0.commit.committed_per_cycle::0     28512129     95.43%     95.43% # Number of insts commited each cycle
system.cpu0.commit.committed_per_cycle::1       622179      2.08%     97.51% # Number of insts commited each cycle
system.cpu0.commit.committed_per_cycle::2       158306      0.53%     98.04% # Number of insts commited each cycle
system.cpu0.commit.committed_per_cycle::3       416549      1.39%     99.43% # Number of insts commited each cycle
system.cpu0.commit.committed_per_cycle::4        61432      0.21%     99.64% # Number of insts commited each cycle
system.cpu0.commit.committed_per_cycle::5        37304      0.12%     99.76% # Number of insts commited each cycle
system.cpu0.commit.committed_per_cycle::6         6139      0.02%     99.78% # Number of insts commited each cycle
system.cpu0.commit.committed_per_cycle::7         4779      0.02%     99.80% # Number of insts commited each cycle
system.cpu0.commit.committed_per_cycle::8        59543      0.20%    100.00% # Number of insts commited each cycle
system.cpu0.commit.committed_per_cycle::overflows            0      0.00%    100.00% # Number of insts commited each cycle
system.cpu0.commit.committed_per_cycle::min_value            0                       # Number of insts commited each cycle
system.cpu0.commit.committed_per_cycle::max_value            8                       # Number of insts commited each cycle
system.cpu0.commit.committed_per_cycle::total     29878360                       # Number of insts commited each cycle
system.cpu0.commit.committedInsts             1586564                       # Number of instructions committed
system.cpu0.commit.committedOps               3167317                       # Number of ops (including micro ops) committed
system.cpu0.commit.swp_count                        0                       # Number of s/w prefetches committed
system.cpu0.commit.refs                        626140                       # Number of memory references committed
system.cpu0.commit.loads                       592746                       # Number of loads committed
system.cpu0.commit.membars                          0                       # Number of memory barriers committed
system.cpu0.commit.branches                    568747                       # Number of branches committed
system.cpu0.commit.vec_insts                        0                       # Number of committed Vector instructions.
system.cpu0.commit.fp_insts                     13666                       # Number of committed floating point instructions.
system.cpu0.commit.int_insts                  3153640                       # Number of committed integer instructions.
system.cpu0.commit.function_calls                5900                       # Number of function calls committed.
system.cpu0.commit.op_class_0::No_OpClass         4087      0.13%      0.13% # Class of committed instruction
system.cpu0.commit.op_class_0::IntAlu         2515250     79.41%     79.54% # Class of committed instruction
system.cpu0.commit.op_class_0::IntMult            236      0.01%     79.55% # Class of committed instruction
system.cpu0.commit.op_class_0::IntDiv            9976      0.31%     79.86% # Class of committed instruction
system.cpu0.commit.op_class_0::FloatAdd         11628      0.37%     80.23% # Class of committed instruction
system.cpu0.commit.op_class_0::FloatCmp             0      0.00%     80.23% # Class of committed instruction
system.cpu0.commit.op_class_0::FloatCvt             0      0.00%     80.23% # Class of committed instruction
system.cpu0.commit.op_class_0::FloatMult            0      0.00%     80.23% # Class of committed instruction
system.cpu0.commit.op_class_0::FloatMultAcc            0      0.00%     80.23% # Class of committed instruction
system.cpu0.commit.op_class_0::FloatDiv             0      0.00%     80.23% # Class of committed instruction
system.cpu0.commit.op_class_0::FloatMisc            0      0.00%     80.23% # Class of committed instruction
system.cpu0.commit.op_class_0::FloatSqrt            0      0.00%     80.23% # Class of committed instruction
system.cpu0.commit.op_class_0::SimdAdd              0      0.00%     80.23% # Class of committed instruction
system.cpu0.commit.op_class_0::SimdAddAcc            0      0.00%     80.23% # Class of committed instruction
system.cpu0.commit.op_class_0::SimdAlu              0      0.00%     80.23% # Class of committed instruction
system.cpu0.commit.op_class_0::SimdCmp              0      0.00%     80.23% # Class of committed instruction
system.cpu0.commit.op_class_0::SimdCvt              0      0.00%     80.23% # Class of committed instruction
system.cpu0.commit.op_class_0::SimdMisc             0      0.00%     80.23% # Class of committed instruction
system.cpu0.commit.op_class_0::SimdMult             0      0.00%     80.23% # Class of committed instruction
system.cpu0.commit.op_class_0::SimdMultAcc            0      0.00%     80.23% # Class of committed instruction
system.cpu0.commit.op_class_0::SimdShift            0      0.00%     80.23% # Class of committed instruction
system.cpu0.commit.op_class_0::SimdShiftAcc            0      0.00%     80.23% # Class of committed instruction
system.cpu0.commit.op_class_0::SimdSqrt             0      0.00%     80.23% # Class of committed instruction
system.cpu0.commit.op_class_0::SimdFloatAdd            0      0.00%     80.23% # Class of committed instruction
system.cpu0.commit.op_class_0::SimdFloatAlu            0      0.00%     80.23% # Class of committed instruction
system.cpu0.commit.op_class_0::SimdFloatCmp            0      0.00%     80.23% # Class of committed instruction
system.cpu0.commit.op_class_0::SimdFloatCvt            0      0.00%     80.23% # Class of committed instruction
system.cpu0.commit.op_class_0::SimdFloatDiv            0      0.00%     80.23% # Class of committed instruction
system.cpu0.commit.op_class_0::SimdFloatMisc            0      0.00%     80.23% # Class of committed instruction
system.cpu0.commit.op_class_0::SimdFloatMult            0      0.00%     80.23% # Class of committed instruction
system.cpu0.commit.op_class_0::SimdFloatMultAcc            0      0.00%     80.23% # Class of committed instruction
system.cpu0.commit.op_class_0::SimdFloatSqrt            0      0.00%     80.23% # Class of committed instruction
system.cpu0.commit.op_class_0::MemRead         590708     18.65%     98.88% # Class of committed instruction
system.cpu0.commit.op_class_0::MemWrite         33394      1.05%     99.94% # Class of committed instruction
system.cpu0.commit.op_class_0::FloatMemRead         2038      0.06%    100.00% # Class of committed instruction
system.cpu0.commit.op_class_0::FloatMemWrite            0      0.00%    100.00% # Class of committed instruction
system.cpu0.commit.op_class_0::IprAccess            0      0.00%    100.00% # Class of committed instruction
system.cpu0.commit.op_class_0::InstPrefetch            0      0.00%    100.00% # Class of committed instruction
system.cpu0.commit.op_class_0::total          3167317                       # Class of committed instruction
system.cpu0.commit.bw_lim_events                59543                       # number cycles where commit BW limit reached
system.cpu0.rob.rob_reads                    37400911                       # The number of ROB reads
system.cpu0.rob.rob_writes                   15788711                       # The number of ROB writes
system.cpu0.timesIdled                            283                       # Number of times that the entire CPU went into an idle state and unscheduled itself
system.cpu0.idleCycles                          33564                       # Total number of cycles that the CPU has spent unscheduled due to idling
system.cpu0.committedInsts                    1586564                       # Number of Instructions Simulated
system.cpu0.committedOps                      3167317                       # Number of Ops (including micro ops) Simulated
system.cpu0.cpi                             19.245797                       # CPI: Cycles Per Instruction
system.cpu0.cpi_total                       19.245797                       # CPI: Total CPI of All Threads
system.cpu0.ipc                              0.051959                       # IPC: Instructions Per Cycle
system.cpu0.ipc_total                        0.051959                       # IPC: Total IPC of All Threads
system.cpu0.int_regfile_reads                 5636323                       # number of integer regfile reads
system.cpu0.int_regfile_writes                4635443                       # number of integer regfile writes
system.cpu0.fp_regfile_reads                    33801                       # number of floating regfile reads
system.cpu0.fp_regfile_writes                   16823                       # number of floating regfile writes
system.cpu0.cc_regfile_reads                  3685828                       # number of cc regfile reads
system.cpu0.cc_regfile_writes                 1560676                       # number of cc regfile writes
system.cpu0.misc_regfile_reads                2897460                       # number of misc regfile reads
system.cpu0.dcache.tags.pwrStateResidencyTicks::UNDEFINED  15267344125                       # Cumulative time (in ticks) in various power states
system.cpu0.dcache.tags.replacements           313480                       # number of replacements
system.cpu0.dcache.tags.tagsinuse                1024                       # Cycle average of tags in use
system.cpu0.dcache.tags.total_refs             334694                       # Total number of references to valid blocks.
system.cpu0.dcache.tags.sampled_refs           313480                       # Sample count of references to valid blocks.
system.cpu0.dcache.tags.avg_refs             1.067673                       # Average number of references to valid blocks.
system.cpu0.dcache.tags.warmup_cycle                0                       # Cycle when the warmup percentage was hit.
system.cpu0.dcache.tags.occ_blocks::cpu0.data         1024                       # Average occupied blocks per requestor
system.cpu0.dcache.tags.occ_percent::cpu0.data            1                       # Average percentage of cache occupancy
system.cpu0.dcache.tags.occ_percent::total            1                       # Average percentage of cache occupancy
system.cpu0.dcache.tags.occ_task_id_blocks::1024         1024                       # Occupied blocks per task id
system.cpu0.dcache.tags.age_task_id_blocks_1024::0          139                       # Occupied blocks per task id
system.cpu0.dcache.tags.age_task_id_blocks_1024::1          790                       # Occupied blocks per task id
system.cpu0.dcache.tags.age_task_id_blocks_1024::2           95                       # Occupied blocks per task id
system.cpu0.dcache.tags.occ_task_id_percent::1024            1                       # Percentage of cache occupancy per task id
system.cpu0.dcache.tags.tag_accesses          3814420                       # Number of tag accesses
system.cpu0.dcache.tags.data_accesses         3814420                       # Number of data accesses
system.cpu0.dcache.pwrStateResidencyTicks::UNDEFINED  15267344125                       # Cumulative time (in ticks) in various power states
system.cpu0.dcache.ReadReq_hits::cpu0.data       304041                       # number of ReadReq hits
system.cpu0.dcache.ReadReq_hits::total         304041                       # number of ReadReq hits
system.cpu0.dcache.WriteReq_hits::cpu0.data        32132                       # number of WriteReq hits
system.cpu0.dcache.WriteReq_hits::total         32132                       # number of WriteReq hits
system.cpu0.dcache.demand_hits::cpu0.data       336173                       # number of demand (read+write) hits
system.cpu0.dcache.demand_hits::total          336173                       # number of demand (read+write) hits
system.cpu0.dcache.overall_hits::cpu0.data       336173                       # number of overall hits
system.cpu0.dcache.overall_hits::total         336173                       # number of overall hits
system.cpu0.dcache.ReadReq_misses::cpu0.data       537800                       # number of ReadReq misses
system.cpu0.dcache.ReadReq_misses::total       537800                       # number of ReadReq misses
system.cpu0.dcache.WriteReq_misses::cpu0.data         1262                       # number of WriteReq misses
system.cpu0.dcache.WriteReq_misses::total         1262                       # number of WriteReq misses
system.cpu0.dcache.demand_misses::cpu0.data       539062                       # number of demand (read+write) misses
system.cpu0.dcache.demand_misses::total        539062                       # number of demand (read+write) misses
system.cpu0.dcache.overall_misses::cpu0.data       539062                       # number of overall misses
system.cpu0.dcache.overall_misses::total       539062                       # number of overall misses
system.cpu0.dcache.ReadReq_miss_latency::cpu0.data  33418710000                       # number of ReadReq miss cycles
system.cpu0.dcache.ReadReq_miss_latency::total  33418710000                       # number of ReadReq miss cycles
system.cpu0.dcache.WriteReq_miss_latency::cpu0.data     48582996                       # number of WriteReq miss cycles
system.cpu0.dcache.WriteReq_miss_latency::total     48582996                       # number of WriteReq miss cycles
system.cpu0.dcache.demand_miss_latency::cpu0.data  33467292996                       # number of demand (read+write) miss cycles
system.cpu0.dcache.demand_miss_latency::total  33467292996                       # number of demand (read+write) miss cycles
system.cpu0.dcache.overall_miss_latency::cpu0.data  33467292996                       # number of overall miss cycles
system.cpu0.dcache.overall_miss_latency::total  33467292996                       # number of overall miss cycles
system.cpu0.dcache.ReadReq_accesses::cpu0.data       841841                       # number of ReadReq accesses(hits+misses)
system.cpu0.dcache.ReadReq_accesses::total       841841                       # number of ReadReq accesses(hits+misses)
system.cpu0.dcache.WriteReq_accesses::cpu0.data        33394                       # number of WriteReq accesses(hits+misses)
system.cpu0.dcache.WriteReq_accesses::total        33394                       # number of WriteReq accesses(hits+misses)
system.cpu0.dcache.demand_accesses::cpu0.data       875235                       # number of demand (read+write) accesses
system.cpu0.dcache.demand_accesses::total       875235                       # number of demand (read+write) accesses
system.cpu0.dcache.overall_accesses::cpu0.data       875235                       # number of overall (read+write) accesses
system.cpu0.dcache.overall_accesses::total       875235                       # number of overall (read+write) accesses
system.cpu0.dcache.ReadReq_miss_rate::cpu0.data     0.638838                       # miss rate for ReadReq accesses
system.cpu0.dcache.ReadReq_miss_rate::total     0.638838                       # miss rate for ReadReq accesses
system.cpu0.dcache.WriteReq_miss_rate::cpu0.data     0.037791                       # miss rate for WriteReq accesses
system.cpu0.dcache.WriteReq_miss_rate::total     0.037791                       # miss rate for WriteReq accesses
[...]
system.l2.ReadExReq_miss_rate::cpu0.data     0.253791                       # miss rate for ReadExReq accesses
system.l2.ReadExReq_miss_rate::total         0.253791                       # miss rate for ReadExReq accesses
system.l2.ReadCleanReq_miss_rate::cpu0.inst            1                       # miss rate for ReadCleanReq accesses
system.l2.ReadCleanReq_miss_rate::total             1                       # miss rate for ReadCleanReq accesses
system.l2.ReadSharedReq_miss_rate::cpu0.data     0.570558                       # miss rate for ReadSharedReq accesses
system.l2.ReadSharedReq_miss_rate::total     0.570558                       # miss rate for ReadSharedReq accesses
system.l2.demand_miss_rate::cpu0.inst               1                       # miss rate for demand accesses
system.l2.demand_miss_rate::cpu0.data        0.569292                       # miss rate for demand accesses
system.l2.demand_miss_rate::total            0.569294                       # miss rate for demand accesses
system.l2.overall_miss_rate::cpu0.inst              1                       # miss rate for overall accesses
system.l2.overall_miss_rate::cpu0.data       0.569292                       # miss rate for overall accesses
system.l2.overall_miss_rate::total           0.569294                       # miss rate for overall accesses
system.l2.ReadExReq_avg_miss_latency::cpu0.data 109822.327044                       # average ReadExReq miss latency
system.l2.ReadExReq_avg_miss_latency::total 109822.327044                       # average ReadExReq miss latency
system.l2.ReadCleanReq_avg_miss_latency::cpu0.inst        95750                       # average ReadCleanReq miss latency
system.l2.ReadCleanReq_avg_miss_latency::total        95750                       # average ReadCleanReq miss latency
system.l2.ReadSharedReq_avg_miss_latency::cpu0.data 95574.667542                       # average ReadSharedReq miss latency
system.l2.ReadSharedReq_avg_miss_latency::total 95574.667542                       # average ReadSharedReq miss latency
system.l2.demand_avg_miss_latency::cpu0.inst        95750                       # average overall miss latency
system.l2.demand_avg_miss_latency::cpu0.data 95600.055474                       # average overall miss latency
system.l2.demand_avg_miss_latency::total 95600.057155                       # average overall miss latency
system.l2.overall_avg_miss_latency::cpu0.inst        95750                       # average overall miss latency
system.l2.overall_avg_miss_latency::cpu0.data 95600.055474                       # average overall miss latency
system.l2.overall_avg_miss_latency::total 95600.057155                       # average overall miss latency
system.l2.blocked_cycles::no_mshrs                  0                       # number of cycles access was blocked
system.l2.blocked_cycles::no_targets                0                       # number of cycles access was blocked
system.l2.blocked::no_mshrs                         0                       # number of cycles access was blocked
system.l2.blocked::no_targets                       0                       # number of cycles access was blocked
system.l2.avg_blocked_cycles::no_mshrs            nan                       # average number of cycles each access was blocked
system.l2.avg_blocked_cycles::no_targets          nan                       # average number of cycles each access was blocked
system.l2.writebacks::writebacks                  425                       # number of writebacks
system.l2.writebacks::total                       425                       # number of writebacks
system.l2.ReadExReq_mshr_misses::cpu0.data          318                       # number of ReadExReq MSHR misses
system.l2.ReadExReq_mshr_misses::total            318                       # number of ReadExReq MSHR misses
system.l2.ReadCleanReq_mshr_misses::cpu0.inst            2                       # number of ReadCleanReq MSHR misses
system.l2.ReadCleanReq_mshr_misses::total            2                       # number of ReadCleanReq MSHR misses
system.l2.ReadSharedReq_mshr_misses::cpu0.data       178143                       # number of ReadSharedReq MSHR misses
system.l2.ReadSharedReq_mshr_misses::total       178143                       # number of ReadSharedReq MSHR misses
system.l2.demand_mshr_misses::cpu0.inst             2                       # number of demand (read+write) MSHR misses
system.l2.demand_mshr_misses::cpu0.data        178461                       # number of demand (read+write) MSHR misses
system.l2.demand_mshr_misses::total            178463                       # number of demand (read+write) MSHR misses
system.l2.overall_mshr_misses::cpu0.inst            2                       # number of overall MSHR misses
system.l2.overall_mshr_misses::cpu0.data       178461                       # number of overall MSHR misses
system.l2.overall_mshr_misses::total           178463                       # number of overall MSHR misses
system.l2.ReadExReq_mshr_miss_latency::cpu0.data     31743500                       # number of ReadExReq MSHR miss cycles
system.l2.ReadExReq_mshr_miss_latency::total     31743500                       # number of ReadExReq MSHR miss cycles
system.l2.ReadCleanReq_mshr_miss_latency::cpu0.inst       171500                       # number of ReadCleanReq MSHR miss cycles
system.l2.ReadCleanReq_mshr_miss_latency::total       171500                       # number of ReadCleanReq MSHR miss cycles
system.l2.ReadSharedReq_mshr_miss_latency::cpu0.data  15244518000                       # number of ReadSharedReq MSHR miss cycles
system.l2.ReadSharedReq_mshr_miss_latency::total  15244518000                       # number of ReadSharedReq MSHR miss cycles
system.l2.demand_mshr_miss_latency::cpu0.inst       171500                       # number of demand (read+write) MSHR miss cycles
system.l2.demand_mshr_miss_latency::cpu0.data  15276261500                       # number of demand (read+write) MSHR miss cycles
system.l2.demand_mshr_miss_latency::total  15276433000                       # number of demand (read+write) MSHR miss cycles
system.l2.overall_mshr_miss_latency::cpu0.inst       171500                       # number of overall MSHR miss cycles
system.l2.overall_mshr_miss_latency::cpu0.data  15276261500                       # number of overall MSHR miss cycles
system.l2.overall_mshr_miss_latency::total  15276433000                       # number of overall MSHR miss cycles
system.l2.ReadExReq_mshr_miss_rate::cpu0.data     0.253791                       # mshr miss rate for ReadExReq accesses
system.l2.ReadExReq_mshr_miss_rate::total     0.253791                       # mshr miss rate for ReadExReq accesses
system.l2.ReadCleanReq_mshr_miss_rate::cpu0.inst            1                       # mshr miss rate for ReadCleanReq accesses
system.l2.ReadCleanReq_mshr_miss_rate::total            1                       # mshr miss rate for ReadCleanReq accesses
system.l2.ReadSharedReq_mshr_miss_rate::cpu0.data     0.570558                       # mshr miss rate for ReadSharedReq accesses
system.l2.ReadSharedReq_mshr_miss_rate::total     0.570558                       # mshr miss rate for ReadSharedReq accesses
system.l2.demand_mshr_miss_rate::cpu0.inst            1                       # mshr miss rate for demand accesses
system.l2.demand_mshr_miss_rate::cpu0.data     0.569292                       # mshr miss rate for demand accesses
system.l2.demand_mshr_miss_rate::total       0.569294                       # mshr miss rate for demand accesses
system.l2.overall_mshr_miss_rate::cpu0.inst            1                       # mshr miss rate for overall accesses
system.l2.overall_mshr_miss_rate::cpu0.data     0.569292                       # mshr miss rate for overall accesses
system.l2.overall_mshr_miss_rate::total      0.569294                       # mshr miss rate for overall accesses
system.l2.ReadExReq_avg_mshr_miss_latency::cpu0.data 99822.327044                       # average ReadExReq mshr miss latency
system.l2.ReadExReq_avg_mshr_miss_latency::total 99822.327044                       # average ReadExReq mshr miss latency
system.l2.ReadCleanReq_avg_mshr_miss_latency::cpu0.inst        85750                       # average ReadCleanReq mshr miss latency
system.l2.ReadCleanReq_avg_mshr_miss_latency::total        85750                       # average ReadCleanReq mshr miss latency
system.l2.ReadSharedReq_avg_mshr_miss_latency::cpu0.data 85574.611408                       # average ReadSharedReq mshr miss latency
system.l2.ReadSharedReq_avg_mshr_miss_latency::total 85574.611408                       # average ReadSharedReq mshr miss latency
system.l2.demand_avg_mshr_miss_latency::cpu0.inst        85750                       # average overall mshr miss latency
system.l2.demand_avg_mshr_miss_latency::cpu0.data 85599.999440                       # average overall mshr miss latency
system.l2.demand_avg_mshr_miss_latency::total 85600.001121                       # average overall mshr miss latency
system.l2.overall_avg_mshr_miss_latency::cpu0.inst        85750                       # average overall mshr miss latency
system.l2.overall_avg_mshr_miss_latency::cpu0.data 85599.999440                       # average overall mshr miss latency
system.l2.overall_avg_mshr_miss_latency::total 85600.001121                       # average overall mshr miss latency
system.membus.snoop_filter.tot_requests        356926                       # Total number of requests made to the snoop filter.
system.membus.snoop_filter.hit_single_requests       178465                       # Number of requests hitting in the snoop filter with a single holder of the requested data.
system.membus.snoop_filter.hit_multi_requests            0                       # Number of requests hitting in the snoop filter with multiple (>1) holders of the requested data.
system.membus.snoop_filter.tot_snoops               0                       # Total number of snoops made to the snoop filter.
system.membus.snoop_filter.hit_single_snoops            0                       # Number of snoops hitting in the snoop filter with a single holder of the requested data.
system.membus.snoop_filter.hit_multi_snoops            0                       # Number of snoops hitting in the snoop filter with multiple (>1) holders of the requested data.
system.membus.pwrStateResidencyTicks::UNDEFINED  15267344125                       # Cumulative time (in ticks) in various power states
system.membus.trans_dist::ReadResp             178146                       # Transaction distribution
system.membus.trans_dist::WritebackDirty          425                       # Transaction distribution
system.membus.trans_dist::CleanEvict           178039                       # Transaction distribution
system.membus.trans_dist::ReadExReq               318                       # Transaction distribution
system.membus.trans_dist::ReadExResp              318                       # Transaction distribution
system.membus.trans_dist::ReadSharedReq        178144                       # Transaction distribution
system.membus.pkt_count_system.l2.mem_side::system.mem_ctrls.port       535390                       # Packet count per connected master and slave (bytes)
system.membus.pkt_count_system.l2.mem_side::total       535390                       # Packet count per connected master and slave (bytes)
system.membus.pkt_count::total                 535390                       # Packet count per connected master and slave (bytes)
system.membus.pkt_size_system.l2.mem_side::system.mem_ctrls.port     11448896                       # Cumulative packet size per connected master and slave (bytes)
system.membus.pkt_size_system.l2.mem_side::total     11448896                       # Cumulative packet size per connected master and slave (bytes)
system.membus.pkt_size::total                11448896                       # Cumulative packet size per connected master and slave (bytes)
system.membus.snoops                                0                       # Total snoops (count)
system.membus.snoopTraffic                          0                       # Total snoop traffic (bytes)
system.membus.snoop_fanout::samples            178462                       # Request fanout histogram
system.membus.snoop_fanout::mean                    0                       # Request fanout histogram
system.membus.snoop_fanout::stdev                   0                       # Request fanout histogram
system.membus.snoop_fanout::underflows              0      0.00%      0.00% # Request fanout histogram
system.membus.snoop_fanout::0                  178462    100.00%    100.00% # Request fanout histogram
system.membus.snoop_fanout::1                       0      0.00%    100.00% # Request fanout histogram
system.membus.snoop_fanout::overflows               0      0.00%    100.00% # Request fanout histogram
system.membus.snoop_fanout::min_value               0                       # Request fanout histogram
system.membus.snoop_fanout::max_value               0                       # Request fanout histogram
system.membus.snoop_fanout::total              178462                       # Request fanout histogram
system.membus.reqLayer8.occupancy           420391000                       # Layer occupancy (ticks)
system.membus.reqLayer8.utilization               2.8                       # Layer utilization (%)
system.membus.respLayer1.occupancy          968196750                       # Layer occupancy (ticks)
system.membus.respLayer1.utilization              6.3                       # Layer utilization (%)
system.tol2bus.snoop_filter.tot_requests       626963                       # Total number of requests made to the snoop filter.
system.tol2bus.snoop_filter.hit_single_requests       313483                       # Number of requests hitting in the snoop filter with a single holder of the requested data.
system.tol2bus.snoop_filter.hit_multi_requests          476                       # Number of requests hitting in the snoop filter with multiple (>1) holders of the requested data.
system.tol2bus.snoop_filter.tot_snoops              2                       # Total number of snoops made to the snoop filter.
system.tol2bus.snoop_filter.hit_single_snoops            2                       # Number of snoops hitting in the snoop filter with a single holder of the requested data.
system.tol2bus.snoop_filter.hit_multi_snoops            0                       # Number of snoops hitting in the snoop filter with multiple (>1) holders of the requested data.
system.tol2bus.pwrStateResidencyTicks::UNDEFINED  15267344125                       # Cumulative time (in ticks) in various power states
system.tol2bus.trans_dist::ReadResp            312229                       # Transaction distribution
system.tol2bus.trans_dist::WritebackDirty         3932                       # Transaction distribution
system.tol2bus.trans_dist::WritebackClean            2                       # Transaction distribution
system.tol2bus.trans_dist::CleanEvict          488014                       # Transaction distribution
system.tol2bus.trans_dist::ReadExReq             1253                       # Transaction distribution
system.tol2bus.trans_dist::ReadExResp            1253                       # Transaction distribution
system.tol2bus.trans_dist::ReadCleanReq             2                       # Transaction distribution
system.tol2bus.trans_dist::ReadSharedReq       312226                       # Transaction distribution
system.tol2bus.pkt_count_system.cpu0.icache.mem_side::system.l2.cpu_side            6                       # Packet count per connected master and slave (bytes)
system.tol2bus.pkt_count_system.cpu0.dcache.mem_side::system.l2.cpu_side       940439                       # Packet count per connected master and slave (bytes)
system.tol2bus.pkt_count::total                940445                       # Packet count per connected master and slave (bytes)
system.tol2bus.pkt_size_system.cpu0.icache.mem_side::system.l2.cpu_side          256                       # Cumulative packet size per connected master and slave (bytes)
system.tol2bus.pkt_size_system.cpu0.dcache.mem_side::system.l2.cpu_side     20287168                       # Cumulative packet size per connected master and slave (bytes)
system.tol2bus.pkt_size::total               20287424                       # Cumulative packet size per connected master and slave (bytes)
system.tol2bus.snoops                          178466                       # Total snoops (count)
system.tol2bus.snoopTraffic                     27200                       # Total snoop traffic (bytes)
system.tol2bus.snoop_fanout::samples           491947                       # Request fanout histogram
system.tol2bus.snoop_fanout::mean            0.000974                       # Request fanout histogram
system.tol2bus.snoop_fanout::stdev           0.031189                       # Request fanout histogram
system.tol2bus.snoop_fanout::underflows             0      0.00%      0.00% # Request fanout histogram
system.tol2bus.snoop_fanout::0                 491468     99.90%     99.90% # Request fanout histogram
system.tol2bus.snoop_fanout::1                    479      0.10%    100.00% # Request fanout histogram
system.tol2bus.snoop_fanout::2                      0      0.00%    100.00% # Request fanout histogram
system.tol2bus.snoop_fanout::3                      0      0.00%    100.00% # Request fanout histogram
system.tol2bus.snoop_fanout::4                      0      0.00%    100.00% # Request fanout histogram
system.tol2bus.snoop_fanout::5                      0      0.00%    100.00% # Request fanout histogram
system.tol2bus.snoop_fanout::6                      0      0.00%    100.00% # Request fanout histogram
system.tol2bus.snoop_fanout::7                      0      0.00%    100.00% # Request fanout histogram
system.tol2bus.snoop_fanout::8                      0      0.00%    100.00% # Request fanout histogram
system.tol2bus.snoop_fanout::9                      0      0.00%    100.00% # Request fanout histogram
system.tol2bus.snoop_fanout::10                     0      0.00%    100.00% # Request fanout histogram
system.tol2bus.snoop_fanout::11                     0      0.00%    100.00% # Request fanout histogram
system.tol2bus.snoop_fanout::12                     0      0.00%    100.00% # Request fanout histogram
system.tol2bus.snoop_fanout::13                     0      0.00%    100.00% # Request fanout histogram
system.tol2bus.snoop_fanout::14                     0      0.00%    100.00% # Request fanout histogram
system.tol2bus.snoop_fanout::15                     0      0.00%    100.00% # Request fanout histogram
system.tol2bus.snoop_fanout::16                     0      0.00%    100.00% # Request fanout histogram
system.tol2bus.snoop_fanout::overflows              0      0.00%    100.00% # Request fanout histogram
system.tol2bus.snoop_fanout::min_value              0                       # Request fanout histogram
system.tol2bus.snoop_fanout::max_value              1                       # Request fanout histogram
system.tol2bus.snoop_fanout::total             491947                       # Request fanout histogram
system.tol2bus.reqLayer0.occupancy          316990500                       # Layer occupancy (ticks)
system.tol2bus.reqLayer0.utilization              2.1                       # Layer utilization (%)
system.tol2bus.respLayer0.occupancy              3000                       # Layer occupancy (ticks)
system.tol2bus.respLayer0.utilization             0.0                       # Layer utilization (%)
system.tol2bus.respLayer1.occupancy         470220000                       # Layer occupancy (ticks)
system.tol2bus.respLayer1.utilization             3.1                       # Layer utilization (%)

---------- End Simulation Statistics   ----------
