
---------- Begin Simulation Statistics ----------
sim_seconds                                  0.015267                       # Number of seconds simulated
sim_ticks                                 15267344125                       # Number of ticks simulated
final_tick                               5709986702750                       # Number of ticks from beginning of simulation (restored from checkpoints and never reset)
sim_freq                                 1000000000000                       # Frequency of simulated ticks
host_inst_rate                              119419249                       # Simulator instruction rate (inst/s)
host_op_rate                                222196544                       # Simulator op (including micro ops) rate (op/s)
host_tick_rate                              309472983                       # Simulator tick rate (ticks/s)
host_mem_usage                                2332676                       # Number of bytes of host memory used
host_seconds                                    49.33                       # Real time elapsed on the host
sim_insts                                  5891351405                       # Number of instructions simulated
sim_ops                                   10961701642                       # Number of ops (including micro ops) simulated
system.voltage_domain.voltage                       1                       # Voltage in Volts
system.clk_domain.clock                          1000                       # Clock period in ticks
system.mem_ctrls.pwrStateResidencyTicks::UNDEFINED  15267344125                       # Cumulative time (in ticks) in various power states
system.mem_ctrls.bytes_read::cpu0.data       11907968                       # Number of bytes read from this memory
system.mem_ctrls.bytes_read::total           11907968                       # Number of bytes read from this memory
system.mem_ctrls.bytes_written::writebacks        24640                       # Number of bytes written to this memory
system.mem_ctrls.bytes_written::total           24640                       # Number of bytes written to this memory
system.mem_ctrls.num_reads::cpu0.data          186062                       # Number of read requests responded to by this memory
system.mem_ctrls.num_reads::total              186062                       # Number of read requests responded to by this memory
system.mem_ctrls.num_writes::writebacks           385                       # Number of write requests responded to by this memory
system.mem_ctrls.num_writes::total                385                       # Number of write requests responded to by this memory
system.mem_ctrls.bw_read::cpu0.data         779963293                       # Total read bandwidth from this memory (bytes/s)
system.mem_ctrls.bw_read::total             779963293                       # Total read bandwidth from this memory (bytes/s)
system.mem_ctrls.bw_write::writebacks         1613902                       # Write bandwidth from this memory (bytes/s)
system.mem_ctrls.bw_write::total              1613902                       # Write bandwidth from this memory (bytes/s)
system.mem_ctrls.bw_total::writebacks         1613902                       # Total bandwidth to/from this memory (bytes/s)
system.mem_ctrls.bw_total::cpu0.data        779963293                       # Total bandwidth to/from this memory (bytes/s)
system.mem_ctrls.bw_total::total            781577195                       # Total bandwidth to/from this memory (bytes/s)
system.mem_ctrls.readReqs                      186063                       # Number of read requests accepted
system.mem_ctrls.writeReqs                        385                       # Number of write requests accepted
system.mem_ctrls.readBursts                    186063                       # Number of DRAM read bursts, including those serviced by the write queue
system.mem_ctrls.writeBursts                      385                       # Number of DRAM write bursts, including those merged in the write queue
system.mem_ctrls.bytesReadDRAM               11904960                       # Total number of bytes read from DRAM
system.mem_ctrls.bytesReadWrQ                    3072                       # Total number of bytes read from write queue
system.mem_ctrls.bytesWritten                   24576                       # Total number of bytes written to DRAM
system.mem_ctrls.bytesReadSys                11908032                       # Total read bytes from the system interface side
system.mem_ctrls.bytesWrittenSys                24640                       # Total written bytes from the system interface side
system.mem_ctrls.servicedByWrQ                     48                       # Number of DRAM read bursts serviced by the write queue
system.mem_ctrls.mergedWrBursts                     0                       # Number of DRAM write bursts merged with an existing one
system.mem_ctrls.neitherReadNorWriteReqs            0                       # Number of requests that are neither read nor write
system.mem_ctrls.perBankRdBursts::0             11623                       # Per bank write bursts
system.mem_ctrls.perBankRdBursts::1             11568                       # Per bank write bursts
system.mem_ctrls.perBankRdBursts::2             11667                       # Per bank write bursts
system.mem_ctrls.perBankRdBursts::3             11778                       # Per bank write bursts
system.mem_ctrls.perBankRdBursts::4             11372                       # Per bank write bursts
system.mem_ctrls.perBankRdBursts::5             11580                       # Per bank write bursts
system.mem_ctrls.perBankRdBursts::6             11577                       # Per bank write bursts
system.mem_ctrls.perBankRdBursts::7             11209                       # Per bank write bursts
system.mem_ctrls.perBankRdBursts::8             11584                       # Per bank write bursts
system.mem_ctrls.perBankRdBursts::9             11406                       # Per bank write bursts
system.mem_ctrls.perBankRdBursts::10            11419                       # Per bank write bursts
system.mem_ctrls.perBankRdBursts::11            11350                       # Per bank write bursts
system.mem_ctrls.perBankRdBursts::12            12052                       # Per bank write bursts
system.mem_ctrls.perBankRdBursts::13            11937                       # Per bank write bursts
system.mem_ctrls.perBankRdBursts::14            11920                       # Per bank write bursts
system.mem_ctrls.perBankRdBursts::15            11973                       # Per bank write bursts
system.mem_ctrls.perBankWrBursts::0                 0                       # Per bank write bursts
system.mem_ctrls.perBankWrBursts::1                 0                       # Per bank write bursts
system.mem_ctrls.perBankWrBursts::2                 0                       # Per bank write bursts
system.mem_ctrls.perBankWrBursts::3                 1                       # Per bank write bursts
system.mem_ctrls.perBankWrBursts::4                62                       # Per bank write bursts
system.mem_ctrls.perBankWrBursts::5               128                       # Per bank write bursts
system.mem_ctrls.perBankWrBursts::6                79                       # Per bank write bursts
system.mem_ctrls.perBankWrBursts::7                 0                       # Per bank write bursts
system.mem_ctrls.perBankWrBursts::8                 0                       # Per bank write bursts
system.mem_ctrls.perBankWrBursts::9                 0                       # Per bank write bursts
system.mem_ctrls.perBankWrBursts::10                0                       # Per bank write bursts
system.mem_ctrls.perBankWrBursts::11               11                       # Per bank write bursts
system.mem_ctrls.perBankWrBursts::12               80                       # Per bank write bursts
system.mem_ctrls.perBankWrBursts::13               23                       # Per bank write bursts
system.mem_ctrls.perBankWrBursts::14                0                       # Per bank write bursts
system.mem_ctrls.perBankWrBursts::15                0                       # Per bank write bursts
system.mem_ctrls.numRdRetry                         0                       # Number of times read queue was full causing retry
system.mem_ctrls.numWrRetry                         0                       # Number of times write queue was full causing retry
system.mem_ctrls.totGap                   15267404000                       # Total gap between requests
system.mem_ctrls.readPktSize::0                     0                       # Read request sizes (log2)
system.mem_ctrls.readPktSize::1                     0                       # Read request sizes (log2)
system.mem_ctrls.readPktSize::2                     0                       # Read request sizes (log2)
system.mem_ctrls.readPktSize::3                     0                       # Read request sizes (log2)
system.mem_ctrls.readPktSize::4                     0                       # Read request sizes (log2)
system.mem_ctrls.readPktSize::5                     0                       # Read request sizes (log2)
system.mem_ctrls.readPktSize::6                186063                       # Read request sizes (log2)
system.mem_ctrls.writePktSize::0                    0                       # Write request sizes (log2)
system.mem_ctrls.writePktSize::1                    0                       # Write request sizes (log2)
system.mem_ctrls.writePktSize::2                    0                       # Write request sizes (log2)
system.mem_ctrls.writePktSize::3                    0                       # Write request sizes (log2)
system.mem_ctrls.writePktSize::4                    0                       # Write request sizes (log2)
system.mem_ctrls.writePktSize::5                    0                       # Write request sizes (log2)
system.mem_ctrls.writePktSize::6                  385                       # Write request sizes (log2)
system.mem_ctrls.rdQLenPdf::0                  141157                       # What read queue length does an incoming req see
system.mem_ctrls.rdQLenPdf::1                   41721                       # What read queue length does an incoming req see
system.mem_ctrls.rdQLenPdf::2                    3063                       # What read queue length does an incoming req see
system.mem_ctrls.rdQLenPdf::3                      74                       # What read queue length does an incoming req see
system.mem_ctrls.rdQLenPdf::4                       0                       # What read queue length does an incoming req see
system.mem_ctrls.rdQLenPdf::5                       0                       # What read queue length does an incoming req see
system.mem_ctrls.rdQLenPdf::6                       0                       # What read queue length does an incoming req see
system.mem_ctrls.rdQLenPdf::7                       0                       # What read queue length does an incoming req see
system.mem_ctrls.rdQLenPdf::8                       0                       # What read queue length does an incoming req see
system.mem_ctrls.rdQLenPdf::9                       0                       # What read queue length does an incoming req see
system.mem_ctrls.rdQLenPdf::10                      0                       # What read queue length does an incoming req see
system.mem_ctrls.rdQLenPdf::11                      0                       # What read queue length does an incoming req see
system.mem_ctrls.rdQLenPdf::12                      0                       # What read queue length does an incoming req see
system.mem_ctrls.rdQLenPdf::13                      0                       # What read queue length does an incoming req see
system.mem_ctrls.rdQLenPdf::14                      0                       # What read queue length does an incoming req see
system.mem_ctrls.rdQLenPdf::15                      0                       # What read queue length does an incoming req see
system.mem_ctrls.rdQLenPdf::16                      0                       # What read queue length does an incoming req see
system.mem_ctrls.rdQLenPdf::17                      0                       # What read queue length does an incoming req see
system.mem_ctrls.rdQLenPdf::18                      0                       # What read queue length does an incoming req see
system.mem_ctrls.rdQLenPdf::19                      0                       # What read queue length does an incoming req see
system.mem_ctrls.rdQLenPdf::20                      0                       # What read queue length does an incoming req see
system.mem_ctrls.rdQLenPdf::21                      0                       # What read queue length does an incoming req see
system.mem_ctrls.rdQLenPdf::22                      0                       # What read queue length does an incoming req see
system.mem_ctrls.rdQLenPdf::23                      0                       # What read queue length does an incoming req see
system.mem_ctrls.rdQLenPdf::24                      0                       # What read queue length does an incoming req see
system.mem_ctrls.rdQLenPdf::25                      0                       # What read queue length does an incoming req see
system.mem_ctrls.rdQLenPdf::26                      0                       # What read queue length does an incoming req see
system.mem_ctrls.rdQLenPdf::27                      0                       # What read queue length does an incoming req see
system.mem_ctrls.rdQLenPdf::28                      0                       # What read queue length does an incoming req see
system.mem_ctrls.rdQLenPdf::29                      0                       # What read queue length does an incoming req see
system.mem_ctrls.rdQLenPdf::30                      0                       # What read queue length does an incoming req see
system.mem_ctrls.rdQLenPdf::31                      0                       # What read queue length does an incoming req see
system.mem_ctrls.wrQLenPdf::0                       0                       # What write queue length does an incoming req see
system.mem_ctrls.wrQLenPdf::1                       0                       # What write queue length does an incoming req see
system.mem_ctrls.wrQLenPdf::2                       0                       # What write queue length does an incoming req see
system.mem_ctrls.wrQLenPdf::3                       0                       # What write queue length does an incoming req see
system.mem_ctrls.wrQLenPdf::4                       0                       # What write queue length does an incoming req see
system.mem_ctrls.wrQLenPdf::5                       0                       # What write queue length does an incoming req see
system.mem_ctrls.wrQLenPdf::6                       0                       # What write queue length does an incoming req see
system.mem_ctrls.wrQLenPdf::7                       0                       # What write queue length does an incoming req see
system.mem_ctrls.wrQLenPdf::8                       0                       # What write queue length does an incoming req see
system.mem_ctrls.wrQLenPdf::9                       0                       # What write queue length does an incoming req see
system.mem_ctrls.wrQLenPdf::10                      0                       # What write queue length does an incoming req see
system.mem_ctrls.wrQLenPdf::11                      0                       # What write queue length does an incoming req see
system.mem_ctrls.wrQLenPdf::12                      0                       # What write queue length does an incoming req see
system.mem_ctrls.wrQLenPdf::13                      0                       # What write queue length does an incoming req see
system.mem_ctrls.wrQLenPdf::14                      0                       # What write queue length does an incoming req see
system.mem_ctrls.wrQLenPdf::15                      0                       # What write queue length does an incoming req see
system.mem_ctrls.wrQLenPdf::16                      0                       # What write queue length does an incoming req see
system.mem_ctrls.wrQLenPdf::17                     24                       # What write queue length does an incoming req see
system.mem_ctrls.wrQLenPdf::18                     24                       # What write queue length does an incoming req see
system.mem_ctrls.wrQLenPdf::19                     24                       # What write queue length does an incoming req see
system.mem_ctrls.wrQLenPdf::20                     24                       # What write queue length does an incoming req see
system.mem_ctrls.wrQLenPdf::21                     24                       # What write queue length does an incoming req see
system.mem_ctrls.wrQLenPdf::22                     24                       # What write queue length does an incoming req see
system.mem_ctrls.wrQLenPdf::23                     24                       # What write queue length does an incoming req see
system.mem_ctrls.wrQLenPdf::24                     24                       # What write queue length does an incoming req see
system.mem_ctrls.wrQLenPdf::25                     24                       # What write queue length does an incoming req see
system.mem_ctrls.wrQLenPdf::26                     24                       # What write queue length does an incoming req see
system.mem_ctrls.wrQLenPdf::27                     24                       # What write queue length does an incoming req see
system.mem_ctrls.wrQLenPdf::28                     25                       # What write queue length does an incoming req see
system.mem_ctrls.wrQLenPdf::29                     24                       # What write queue length does an incoming req see
system.mem_ctrls.wrQLenPdf::30                     24                       # What write queue length does an incoming req see
system.mem_ctrls.wrQLenPdf::31                     24                       # What write queue length does an incoming req see
system.mem_ctrls.wrQLenPdf::32                     24                       # What write queue length does an incoming req see
system.mem_ctrls.wrQLenPdf::33                      0                       # What write queue length does an incoming req see
system.mem_ctrls.wrQLenPdf::34                      0                       # What write queue length does an incoming req see
system.mem_ctrls.wrQLenPdf::35                      0                       # What write queue length does an incoming req see
system.mem_ctrls.wrQLenPdf::36                      0                       # What write queue length does an incoming req see
system.mem_ctrls.wrQLenPdf::37                      0                       # What write queue length does an incoming req see
system.mem_ctrls.wrQLenPdf::38                      0                       # What write queue length does an incoming req see
system.mem_ctrls.wrQLenPdf::39                      0                       # What write queue length does an incoming req see
system.mem_ctrls.wrQLenPdf::40                      0                       # What write queue length does an incoming req see
system.mem_ctrls.wrQLenPdf::41                      0                       # What write queue length does an incoming req see
system.mem_ctrls.wrQLenPdf::42                      0                       # What write queue length does an incoming req see
system.mem_ctrls.wrQLenPdf::43                      0                       # What write queue length does an incoming req see
system.mem_ctrls.wrQLenPdf::44                      0                       # What write queue length does an incoming req see
system.mem_ctrls.wrQLenPdf::45                      0                       # What write queue length does an incoming req see
system.mem_ctrls.wrQLenPdf::46                      0                       # What write queue length does an incoming req see
system.mem_ctrls.wrQLenPdf::47                      0                       # What write queue length does an incoming req see
system.mem_ctrls.wrQLenPdf::48                      0                       # What write queue length does an incoming req see
system.mem_ctrls.wrQLenPdf::49                      0                       # What write queue length does an incoming req see
system.mem_ctrls.wrQLenPdf::50                      0                       # What write queue length does an incoming req see
system.mem_ctrls.wrQLenPdf::51                      0                       # What write queue length does an incoming req see
system.mem_ctrls.wrQLenPdf::52                      0                       # What write queue length does an incoming req see
system.mem_ctrls.wrQLenPdf::53                      0                       # What write queue length does an incoming req see
system.mem_ctrls.wrQLenPdf::54                      0                       # What write queue length does an incoming req see
system.mem_ctrls.wrQLenPdf::55                      0                       # What write queue length does an incoming req see
system.mem_ctrls.wrQLenPdf::56                      0                       # What write queue length does an incoming req see
system.mem_ctrls.wrQLenPdf::57                      0                       # What write queue length does an incoming req see
system.mem_ctrls.wrQLenPdf::58                      0                       # What write queue length does an incoming req see
system.mem_ctrls.wrQLenPdf::59                      0                       # What write queue length does an incoming req see
system.mem_ctrls.wrQLenPdf::60                      0                       # What write queue length does an incoming req see
system.mem_ctrls.wrQLenPdf::61                      0                       # What write queue length does an incoming req see
system.mem_ctrls.wrQLenPdf::62                      0                       # What write queue length does an incoming req see
system.mem_ctrls.wrQLenPdf::63                      0                       # What write queue length does an incoming req see
system.mem_ctrls.bytesPerActivate::samples        97474                       # Bytes accessed per row activation
system.mem_ctrls.bytesPerActivate::mean    122.386195                       # Bytes accessed per row activation
system.mem_ctrls.bytesPerActivate::gmean   105.500513                       # Bytes accessed per row activation
system.mem_ctrls.bytesPerActivate::stdev    73.586293                       # Bytes accessed per row activation
system.mem_ctrls.bytesPerActivate::0-127        45872     47.06%     47.06% # Bytes accessed per row activation
system.mem_ctrls.bytesPerActivate::128-255        42197     43.29%     90.35% # Bytes accessed per row activation
system.mem_ctrls.bytesPerActivate::256-383         8230      8.44%     98.79% # Bytes accessed per row activation
system.mem_ctrls.bytesPerActivate::384-511         1055      1.08%     99.88% # Bytes accessed per row activation
system.mem_ctrls.bytesPerActivate::512-639           99      0.10%     99.98% # Bytes accessed per row activation
system.mem_ctrls.bytesPerActivate::640-767            6      0.01%     99.98% # Bytes accessed per row activation
system.mem_ctrls.bytesPerActivate::768-895            5      0.01%     99.99% # Bytes accessed per row activation
system.mem_ctrls.bytesPerActivate::896-1023            2      0.00%     99.99% # Bytes accessed per row activation
system.mem_ctrls.bytesPerActivate::1024-1151            8      0.01%    100.00% # Bytes accessed per row activation
system.mem_ctrls.bytesPerActivate::total        97474                       # Bytes accessed per row activation
system.mem_ctrls.rdPerTurnAround::samples           24                       # Reads before turning the bus around for writes
system.mem_ctrls.rdPerTurnAround::mean    7784.541667                       # Reads before turning the bus around for writes
system.mem_ctrls.rdPerTurnAround::gmean   7547.744064                       # Reads before turning the bus around for writes
system.mem_ctrls.rdPerTurnAround::stdev   1839.533494                       # Reads before turning the bus around for writes
system.mem_ctrls.rdPerTurnAround::4096-4607            2      8.33%      8.33% # Reads before turning the bus around for writes
system.mem_ctrls.rdPerTurnAround::4608-5119            1      4.17%     12.50% # Reads before turning the bus around for writes
system.mem_ctrls.rdPerTurnAround::5120-5631            2      8.33%     20.83% # Reads before turning the bus around for writes
system.mem_ctrls.rdPerTurnAround::7168-7679            3     12.50%     33.33% # Reads before turning the bus around for writes
system.mem_ctrls.rdPerTurnAround::7680-8191            6     25.00%     58.33% # Reads before turning the bus around for writes
system.mem_ctrls.rdPerTurnAround::8192-8703            3     12.50%     70.83% # Reads before turning the bus around for writes
system.mem_ctrls.rdPerTurnAround::8704-9215            2      8.33%     79.17% # Reads before turning the bus around for writes
system.mem_ctrls.rdPerTurnAround::9216-9727            2      8.33%     87.50% # Reads before turning the bus around for writes
system.mem_ctrls.rdPerTurnAround::9728-10239            1      4.17%     91.67% # Reads before turning the bus around for writes
system.mem_ctrls.rdPerTurnAround::10240-10751            1      4.17%     95.83% # Reads before turning the bus around for writes
system.mem_ctrls.rdPerTurnAround::10752-11263            1      4.17%    100.00% # Reads before turning the bus around for writes
system.mem_ctrls.rdPerTurnAround::total            24                       # Reads before turning the bus around for writes
system.mem_ctrls.wrPerTurnAround::samples           24                       # Writes before turning the bus around for reads
system.mem_ctrls.wrPerTurnAround::mean             16                       # Writes before turning the bus around for reads
system.mem_ctrls.wrPerTurnAround::gmean     16.000000                       # Writes before turning the bus around for reads
system.mem_ctrls.wrPerTurnAround::16               24    100.00%    100.00% # Writes before turning the bus around for reads
system.mem_ctrls.wrPerTurnAround::total            24                       # Writes before turning the bus around for reads
system.mem_ctrls.totQLat                   4526182000                       # Total ticks spent queuing
system.mem_ctrls.totMemAccLat              8013963250                       # Total ticks spent from burst creation until serviced by the DRAM
system.mem_ctrls.totBusLat                  930075000                       # Total ticks spent in databus transfers
system.mem_ctrls.avgQLat                     24332.35                       # Average queueing delay per DRAM burst
system.mem_ctrls.avgBusLat                    5000.00                       # Average bus latency per DRAM burst
system.mem_ctrls.avgMemAccLat                43082.35                       # Average memory access latency per DRAM burst
system.mem_ctrls.avgRdBW                       779.77                       # Average DRAM read bandwidth in MiByte/s
system.mem_ctrls.avgWrBW                         1.61                       # Average achieved write bandwidth in MiByte/s
system.mem_ctrls.avgRdBWSys                    779.97                       # Average system read bandwidth in MiByte/s
system.mem_ctrls.avgWrBWSys                      1.61                       # Average system write bandwidth in MiByte/s
system.mem_ctrls.peakBW                      12800.00                       # Theoretical peak bandwidth in MiByte/s
system.mem_ctrls.busUtil                         6.10                       # Data bus utilization in percentage
system.mem_ctrls.busUtilRead                     6.09                       # Data bus utilization in percentage for reads
system.mem_ctrls.busUtilWrite                    0.01                       # Data bus utilization in percentage for writes
system.mem_ctrls.avgRdQLen                       1.31                       # Average read queue length when enqueuing
system.mem_ctrls.avgWrQLen                      25.59                       # Average write queue length when enqueuing
system.mem_ctrls.readRowHits                    88599                       # Number of row buffer hits during reads
system.mem_ctrls.writeRowHits                     329                       # Number of row buffer hits during writes
system.mem_ctrls.readRowHitRate                 47.63                       # Row buffer hit rate for reads
system.mem_ctrls.writeRowHitRate                85.45                       # Row buffer hit rate for writes
system.mem_ctrls.avgGap                      81885.59                       # Average gap between requests
system.mem_ctrls.pageHitRate                    47.71                       # Row buffer hit rate, read and write combined
system.mem_ctrls_0.actEnergy                346325700                       # Energy for activate commands per rank (pJ)
system.mem_ctrls_0.preEnergy                184080270                       # Energy for precharge commands per rank (pJ)
system.mem_ctrls_0.readEnergy               659550360                       # Energy for read commands per rank (pJ)
system.mem_ctrls_0.writeEnergy                1409400                       # Energy for write commands per rank (pJ)
system.mem_ctrls_0.refreshEnergy         1205309040.000000                       # Energy for refresh commands per rank (pJ)
system.mem_ctrls_0.actBackEnergy           1579552650                       # Energy for active background per rank (pJ)
system.mem_ctrls_0.preBackEnergy             24676320                       # Energy for precharge background per rank (pJ)
system.mem_ctrls_0.actPowerDownEnergy      5158986780                       # Energy for active power-down per rank (pJ)
system.mem_ctrls_0.prePowerDownEnergy       163424640                       # Energy for precharge power-down per rank (pJ)
system.mem_ctrls_0.selfRefreshEnergy                0                       # Energy for self refresh per rank (pJ)
system.mem_ctrls_0.totalEnergy             9323315160                       # Total energy per rank (pJ)
system.mem_ctrls_0.averagePower            610.670401                       # Core power per rank (mW)
system.mem_ctrls_0.totalIdleTime          11737771625                       # Total Idle time Per DRAM Rank
system.mem_ctrls_0.memoryStateTime::IDLE      9690000                       # Time in different power states
system.mem_ctrls_0.memoryStateTime::REF     509860000                       # Time in different power states
system.mem_ctrls_0.memoryStateTime::SREF            0                       # Time in different power states
system.mem_ctrls_0.memoryStateTime::PRE_PDN    425258250                       # Time in different power states
system.mem_ctrls_0.memoryStateTime::ACT    3010022500                       # Time in different power states
system.mem_ctrls_0.memoryStateTime::ACT_PDN  11312513375                       # Time in different power states
system.mem_ctrls_1.actEnergy                349617240                       # Energy for activate commands per rank (pJ)
system.mem_ctrls_1.preEnergy                185833560                       # Energy for precharge commands per rank (pJ)
system.mem_ctrls_1.readEnergy               668596740                       # Energy for read commands per rank (pJ)
system.mem_ctrls_1.writeEnergy                 595080                       # Energy for write commands per rank (pJ)
system.mem_ctrls_1.refreshEnergy         1205309040.000000                       # Energy for refresh commands per rank (pJ)
system.mem_ctrls_1.actBackEnergy           1599332220                       # Energy for active background per rank (pJ)
system.mem_ctrls_1.preBackEnergy             24813120                       # Energy for precharge background per rank (pJ)
system.mem_ctrls_1.actPowerDownEnergy      5159112180                       # Energy for active power-down per rank (pJ)
system.mem_ctrls_1.prePowerDownEnergy       146525760                       # Energy for precharge power-down per rank (pJ)
system.mem_ctrls_1.selfRefreshEnergy                0                       # Energy for self refresh per rank (pJ)
system.mem_ctrls_1.totalEnergy             9339734940                       # Total energy per rank (pJ)
system.mem_ctrls_1.averagePower            611.745885                       # Core power per rank (mW)
system.mem_ctrls_1.totalIdleTime          11695301375                       # Total Idle time Per DRAM Rank
system.mem_ctrls_1.memoryStateTime::IDLE     10194000                       # Time in different power states
system.mem_ctrls_1.memoryStateTime::REF     509860000                       # Time in different power states
system.mem_ctrls_1.memoryStateTime::SREF            0                       # Time in different power states
system.mem_ctrls_1.memoryStateTime::PRE_PDN    381815750                       # Time in different power states
system.mem_ctrls_1.memoryStateTime::ACT    3051286250                       # Time in different power states
system.mem_ctrls_1.memoryStateTime::ACT_PDN  11314188125                       # Time in different power states
system.pwrStateResidencyTicks::UNDEFINED  15267344125                       # Cumulative time (in ticks) in various power states
system.cpu0.branchPred.lookups                1910635                       # Number of BP lookups
system.cpu0.branchPred.condPredicted          1910635                       # Number of conditional branches predicted
system.cpu0.branchPred.condIncorrect            78949                       # Number of conditional branches incorrect
system.cpu0.branchPred.BTBLookups             1542179                       # Number of BTB lookups
system.cpu0.branchPred.BTBHits                      0                       # Number of BTB hits
system.cpu0.branchPred.BTBCorrect                   0                       # Number of correct BTB predictions (this stat may not work properly.
system.cpu0.branchPred.BTBHitPct             0.000000                       # BTB Hit Percentage
system.cpu0.branchPred.usedRAS                  48997                       # Number of times the RAS was used to get a target.
system.cpu0.branchPred.RASInCorrect              7801                       # Number of incorrect RAS predictions.
system.cpu0.branchPred.indirectLookups        1542179                       # Number of indirect predictor lookups.
system.cpu0.branchPred.indirectHits            817035                       # Number of indirect target hits.
system.cpu0.branchPred.indirectMisses          725144                       # Number of indirect misses.
system.cpu0.branchPredindirectMispredicted        25302                       # Number of mispredicted indirect branches.
system.cpu_voltage_domain.voltage                   1                       # Voltage in Volts
system.cpu_clk_domain.clock                       500                       # Clock period in ticks
system.cpu0.dtb.walker.pwrStateResidencyTicks::UNDEFINED  15267344125                       # Cumulative time (in ticks) in various power states
system.cpu0.dtb.rdAccesses                     884018                       # TLB accesses on read requests
system.cpu0.dtb.wrAccesses                      57977                       # TLB accesses on write requests
system.cpu0.dtb.rdMisses                       179236                       # TLB misses on read requests
system.cpu0.dtb.wrMisses                          924                       # TLB misses on write requests
system.cpu0.apic_clk_domain.clock                8000                       # Clock period in ticks
system.cpu0.interrupts.pwrStateResidencyTicks::UNDEFINED  15267344125                       # Cumulative time (in ticks) in various power states
system.cpu0.itb.walker.pwrStateResidencyTicks::UNDEFINED  15267344125                       # Cumulative time (in ticks) in various power states
system.cpu0.itb.rdAccesses                          0                       # TLB accesses on read requests
system.cpu0.itb.wrAccesses                    1602162                       # TLB accesses on write requests
system.cpu0.itb.rdMisses                            0                       # TLB misses on read requests
system.cpu0.itb.wrMisses                         6582                       # TLB misses on write requests
system.cpu0.workload.numSyscalls                    0                       # Number of system calls
system.cpu0.pwrStateResidencyTicks::ON    15267344125                       # Cumulative time (in ticks) in various power states
system.cpu0.numCycles                        30534688                       # number of cpu cycles simulated
system.cpu0.numWorkItemsStarted                     0                       # number of work items this cpu started
system.cpu0.numWorkItemsCompleted                   0                       # number of work items this cpu completed
system.cpu0.fetch.icacheStallCycles           1635691                       # Number of cycles fetch is stalled on an Icache miss
system.cpu0.fetch.Insts                       5512419                       # Number of instructions fetch has processed
system.cpu0.fetch.Branches                    1910635                       # Number of branches that fetch encountered
system.cpu0.fetch.predictedBranches            866032                       # Number of branches that fetch has predicted taken
system.cpu0.fetch.Cycles                     28687034                       # Number of cycles fetch has run and was not squashing or blocked
system.cpu0.fetch.SquashCycles                 161940                       # Number of cycles fetch has spent squashing
system.cpu0.fetch.TlbCycles                      2722                       # Number of cycles fetch has spent waiting for tlb
system.cpu0.fetch.MiscStallCycles                1538                       # Number of cycles fetch has spent waiting on interrupts, or bad addresses, or out of MSHRs
system.cpu0.fetch.PendingTrapStallCycles        59224                       # Number of stall cycles due to pending traps
system.cpu0.fetch.CacheLines                  1595580                       # Number of cache lines fetched
system.cpu0.fetch.IcacheSquashes                 9530                       # Number of outstanding Icache misses that were squashed
system.cpu0.fetch.ItlbSquashes                     12                       # Number of outstanding ITLB misses that were squashed
system.cpu0.fetch.rateDist::samples          30467179                       # Number of instructions fetched each cycle (Total)
system.cpu0.fetch.rateDist::mean             0.363559                       # Number of instructions fetched each cycle (Total)
system.cpu0.fetch.rateDist::stdev            1.512415                       # Number of instructions fetched each cycle (Total)
system.cpu0.fetch.rateDist::underflows              0      0.00%      0.00% # Number of instructions fetched each cycle (Total)
system.cpu0.fetch.rateDist::0                28317299     92.94%     92.94% # Number of instructions fetched each cycle (Total)
system.cpu0.fetch.rateDist::1                   26987      0.09%     93.03% # Number of instructions fetched each cycle (Total)
system.cpu0.fetch.rateDist::2                  795461      2.61%     95.64% # Number of instructions fetched each cycle (Total)
system.cpu0.fetch.rateDist::3                   28649      0.09%     95.74% # Number of instructions fetched each cycle (Total)
system.cpu0.fetch.rateDist::4                  149663      0.49%     96.23% # Number of instructions fetched each cycle (Total)
system.cpu0.fetch.rateDist::5                   67429      0.22%     96.45% # Number of instructions fetched each cycle (Total)
system.cpu0.fetch.rateDist::6                   95509      0.31%     96.76% # Number of instructions fetched each cycle (Total)
system.cpu0.fetch.rateDist::7                   25561      0.08%     96.85% # Number of instructions fetched each cycle (Total)
system.cpu0.fetch.rateDist::8                  960621      3.15%    100.00% # Number of instructions fetched each cycle (Total)
system.cpu0.fetch.rateDist::overflows               0      0.00%    100.00% # Number of instructions fetched each cycle (Total)
system.cpu0.fetch.rateDist::min_value               0                       # Number of instructions fetched each cycle (Total)
system.cpu0.fetch.rateDist::max_value               8                       # Number of instructions fetched each cycle (Total)
system.cpu0.fetch.rateDist::total            30467179                       # Number of instructions fetched each cycle (Total)
system.cpu0.fetch.branchRate                 0.062573                       # Number of branch fetches per cycle
system.cpu0.fetch.rate                       0.180530                       # Number of inst fetches per cycle
system.cpu0.decode.IdleCycles                  817735                       # Number of cycles decode is idle
system.cpu0.decode.BlockedCycles             28153205                       # Number of cycles decode is blocked
system.cpu0.decode.RunCycles                  1054863                       # Number of cycles decode is running
system.cpu0.decode.UnblockCycles               360406                       # Number of cycles decode is unblocking
system.cpu0.decode.SquashCycles                 80970                       # Number of cycles decode is squashing
system.cpu0.decode.DecodedInsts               9123153                       # Number of instructions handled by decode
system.cpu0.rename.SquashCycles                 80970                       # Number of cycles rename is squashing
system.cpu0.rename.IdleCycles                  929247                       # Number of cycles rename is idle
system.cpu0.rename.BlockCycles               26746037                       # Number of cycles rename is blocking
system.cpu0.rename.serializeStallCycles         33615                       # count of cycles rename stalled for serializing inst
system.cpu0.rename.RunCycles                  1216842                       # Number of cycles rename is running
system.cpu0.rename.UnblockCycles              1460468                       # Number of cycles rename is unblocking
system.cpu0.rename.RenamedInsts               8761672                       # Number of instructions processed by rename
system.cpu0.rename.ROBFullEvents                64774                       # Number of times rename has blocked due to ROB full
system.cpu0.rename.IQFullEvents               1172822                       # Number of times rename has blocked due to IQ full
system.cpu0.rename.LQFullEvents                237539                       # Number of times rename has blocked due to LQ full
system.cpu0.rename.SQFullEvents                   480                       # Number of times rename has blocked due to SQ full
system.cpu0.rename.RenamedOperands           10443186                       # Number of destination operands rename has renamed
system.cpu0.rename.RenameLookups             24435691                       # Number of register rename lookups that rename has made
system.cpu0.rename.int_rename_lookups        11449836                       # Number of integer rename lookups
system.cpu0.rename.fp_rename_lookups            40763                       # Number of floating rename lookups
system.cpu0.rename.CommittedMaps              3584953                       # Number of HB maps that are committed
system.cpu0.rename.UndoneMaps                 6858233                       # Number of HB maps that are undone due to squashing
system.cpu0.rename.serializingInsts               405                       # count of serializing insts renamed
system.cpu0.rename.tempSerializingInsts           475                       # count of temporary serializing insts renamed
system.cpu0.rename.skidInsts                  2268146                       # count of insts added to the skid buffer
system.cpu0.memDep0.insertedLoads             1594829                       # Number of loads inserted to the mem dependence unit.
system.cpu0.memDep0.insertedStores              85234                       # Number of stores inserted to the mem dependence unit.
system.cpu0.memDep0.conflictingLoads             3711                       # Number of conflicting loads.
system.cpu0.memDep0.conflictingStores            4800                       # Number of conflicting stores.
system.cpu0.iq.iqInstsAdded                   8329607                       # Number of instructions added to the IQ (excludes non-spec)
system.cpu0.iq.iqNonSpecInstsAdded               5002                       # Number of non-speculative instructions added to the IQ
system.cpu0.iq.iqInstsIssued                  5890859                       # Number of instructions issued
system.cpu0.iq.iqSquashedInstsIssued             6758                       # Number of squashed instructions issued
system.cpu0.iq.iqSquashedInstsExamined        5343305                       # Number of squashed instructions iterated over during squash; mainly for profiling
system.cpu0.iq.iqSquashedOperandsExamined     11284646                       # Number of squashed operands that are examined and possibly removed from graph
system.cpu0.iq.iqSquashedNonSpecRemoved          5002                       # Number of squashed non-spec instructions that were removed
system.cpu0.iq.issued_per_cycle::samples     30467179                       # Number of insts issued each cycle
system.cpu0.iq.issued_per_cycle::mean        0.193351                       # Number of insts issued each cycle
system.cpu0.iq.issued_per_cycle::stdev       0.800305                       # Number of insts issued each cycle
system.cpu0.iq.issued_per_cycle::underflows            0      0.00%      0.00% # Number of insts issued each cycle
system.cpu0.iq.issued_per_cycle::0           28072410     92.14%     92.14% # Number of insts issued each cycle
system.cpu0.iq.issued_per_cycle::1             932701      3.06%     95.20% # Number of insts issued each cycle
system.cpu0.iq.issued_per_cycle::2             505545      1.66%     96.86% # Number of insts issued each cycle
system.cpu0.iq.issued_per_cycle::3             339352      1.11%     97.97% # Number of insts issued each cycle
system.cpu0.iq.issued_per_cycle::4             371728      1.22%     99.19% # Number of insts issued each cycle
system.cpu0.iq.issued_per_cycle::5             105954      0.35%     99.54% # Number of insts issued each cycle
system.cpu0.iq.issued_per_cycle::6              86877      0.29%     99.83% # Number of insts issued each cycle
system.cpu0.iq.issued_per_cycle::7              29828      0.10%     99.93% # Number of insts issued each cycle
system.cpu0.iq.issued_per_cycle::8              22784      0.07%    100.00% # Number of insts issued each cycle
system.cpu0.iq.issued_per_cycle::overflows            0      0.00%    100.00% # Number of insts issued each cycle
system.cpu0.iq.issued_per_cycle::min_value            0                       # Number of insts issued each cycle
system.cpu0.iq.issued_per_cycle::max_value            8                       # Number of insts issued each cycle
system.cpu0.iq.issued_per_cycle::total       30467179                       # Number of insts issued each cycle
system.cpu0.iq.fu_full::No_OpClass                  0      0.00%      0.00% # attempts to use FU when none available
system.cpu0.iq.fu_full::IntAlu                  11343     67.87%     67.87% # attempts to use FU when none available
system.cpu0.iq.fu_full::IntMult                     0      0.00%     67.87% # attempts to use FU when none available
system.cpu0.iq.fu_full::IntDiv                      0      0.00%     67.87% # attempts to use FU when none available
system.cpu0.iq.fu_full::FloatAdd                 1167      6.98%     74.85% # attempts to use FU when none available
system.cpu0.iq.fu_full::FloatCmp                    0      0.00%     74.85% # attempts to use FU when none available
system.cpu0.iq.fu_full::FloatCvt                    0      0.00%     74.85% # attempts to use FU when none available
system.cpu0.iq.fu_full::FloatMult                   0      0.00%     74.85% # attempts to use FU when none available
system.cpu0.iq.fu_full::FloatMultAcc                0      0.00%     74.85% # attempts to use FU when none available
system.cpu0.iq.fu_full::FloatDiv                    0      0.00%     74.85% # attempts to use FU when none available
system.cpu0.iq.fu_full::FloatMisc                   0      0.00%     74.85% # attempts to use FU when none available
system.cpu0.iq.fu_full::FloatSqrt                   0      0.00%     74.85% # attempts to use FU when none available
system.cpu0.iq.fu_full::SimdAdd                     0      0.00%     74.85% # attempts to use FU when none available
system.cpu0.iq.fu_full::SimdAddAcc                  0      0.00%     74.85% # attempts to use FU when none available
system.cpu0.iq.fu_full::SimdAlu                     0      0.00%     74.85% # attempts to use FU when none available
system.cpu0.iq.fu_full::SimdCmp                     0      0.00%     74.85% # attempts to use FU when none available
system.cpu0.iq.fu_full::SimdCvt                     0      0.00%     74.85% # attempts to use FU when none available
system.cpu0.iq.fu_full::SimdMisc                    0      0.00%     74.85% # attempts to use FU when none available
system.cpu0.iq.fu_full::SimdMult                    0      0.00%     74.85% # attempts to use FU when none available
system.cpu0.iq.fu_full::SimdMultAcc                 0      0.00%     74.85% # attempts to use FU when none available
system.cpu0.iq.fu_full::SimdShift                   0      0.00%     74.85% # attempts to use FU when none available
system.cpu0.iq.fu_full::SimdShiftAcc                0      0.00%     74.85% # attempts to use FU when none available
system.cpu0.iq.fu_full::SimdSqrt                    0      0.00%     74.85% # attempts to use FU when none available
system.cpu0.iq.fu_full::SimdFloatAdd                0      0.00%     74.85% # attempts to use FU when none available
system.cpu0.iq.fu_full::SimdFloatAlu                0      0.00%     74.85% # attempts to use FU when none available
system.cpu0.iq.fu_full::SimdFloatCmp                0      0.00%     74.85% # attempts to use FU when none available
system.cpu0.iq.fu_full::SimdFloatCvt                0      0.00%     74.85% # attempts to use FU when none available
system.cpu0.iq.fu_full::SimdFloatDiv                0      0.00%     74.85% # attempts to use FU when none available
system.cpu0.iq.fu_full::SimdFloatMisc               0      0.00%     74.85% # attempts to use FU when none available
system.cpu0.iq.fu_full::SimdFloatMult               0      0.00%     74.85% # attempts to use FU when none available
system.cpu0.iq.fu_full::SimdFloatMultAcc            0      0.00%     74.85% # attempts to use FU when none available
system.cpu0.iq.fu_full::SimdFloatSqrt               0      0.00%     74.85% # attempts to use FU when none available
system.cpu0.iq.fu_full::MemRead                  3691     22.08%     96.94% # attempts to use FU when none available
system.cpu0.iq.fu_full::MemWrite                  336      2.01%     98.95% # attempts to use FU when none available
system.cpu0.iq.fu_full::FloatMemRead              143      0.86%     99.80% # attempts to use FU when none available
system.cpu0.iq.fu_full::FloatMemWrite              33      0.20%    100.00% # attempts to use FU when none available
system.cpu0.iq.fu_full::IprAccess                   0      0.00%    100.00% # attempts to use FU when none available
system.cpu0.iq.fu_full::InstPrefetch                0      0.00%    100.00% # attempts to use FU when none available
system.cpu0.iq.FU_type_0::No_OpClass            20242      0.34%      0.34% # Type of FU issued
system.cpu0.iq.FU_type_0::IntAlu              4854981     82.42%     82.76% # Type of FU issued
system.cpu0.iq.FU_type_0::IntMult                1261      0.02%     82.78% # Type of FU issued
system.cpu0.iq.FU_type_0::IntDiv                10166      0.17%     82.95% # Type of FU issued
system.cpu0.iq.FU_type_0::FloatAdd              14831      0.25%     83.20% # Type of FU issued
system.cpu0.iq.FU_type_0::FloatCmp                  0      0.00%     83.20% # Type of FU issued
system.cpu0.iq.FU_type_0::FloatCvt                  0      0.00%     83.20% # Type of FU issued
system.cpu0.iq.FU_type_0::FloatMult                 0      0.00%     83.20% # Type of FU issued
system.cpu0.iq.FU_type_0::FloatMultAcc              0      0.00%     83.20% # Type of FU issued
system.cpu0.iq.FU_type_0::FloatDiv                  0      0.00%     83.20% # Type of FU issued
system.cpu0.iq.FU_type_0::FloatMisc                 0      0.00%     83.20% # Type of FU issued
system.cpu0.iq.FU_type_0::FloatSqrt                 0      0.00%     83.20% # Type of FU issued
system.cpu0.iq.FU_type_0::SimdAdd                   0      0.00%     83.20% # Type of FU issued
system.cpu0.iq.FU_type_0::SimdAddAcc                0      0.00%     83.20% # Type of FU issued
system.cpu0.iq.FU_type_0::SimdAlu                   0      0.00%     83.20% # Type of FU issued
system.cpu0.iq.FU_type_0::SimdCmp                   0      0.00%     83.20% # Type of FU issued
system.cpu0.iq.FU_type_0::SimdCvt                   0      0.00%     83.20% # Type of FU issued
system.cpu0.iq.FU_type_0::SimdMisc                  0      0.00%     83.20% # Type of FU issued
system.cpu0.iq.FU_type_0::SimdMult                  0      0.00%     83.20% # Type of FU issued
system.cpu0.iq.FU_type_0::SimdMultAcc               0      0.00%     83.20% # Type of FU issued
system.cpu0.iq.FU_type_0::SimdShift                 0      0.00%     83.20% # Type of FU issued
system.cpu0.iq.FU_type_0::SimdShiftAcc              0      0.00%     83.20% # Type of FU issued
system.cpu0.iq.FU_type_0::SimdSqrt                  0      0.00%     83.20% # Type of FU issued
system.cpu0.iq.FU_type_0::SimdFloatAdd              0      0.00%     83.20% # Type of FU issued
system.cpu0.iq.FU_type_0::SimdFloatAlu              0      0.00%     83.20% # Type of FU issued
system.cpu0.iq.FU_type_0::SimdFloatCmp              0      0.00%     83.20% # Type of FU issued
system.cpu0.iq.FU_type_0::SimdFloatCvt              0      0.00%     83.20% # Type of FU issued
system.cpu0.iq.FU_type_0::SimdFloatDiv              0      0.00%     83.20% # Type of FU issued
system.cpu0.iq.FU_type_0::SimdFloatMisc             0      0.00%     83.20% # Type of FU issued
system.cpu0.iq.FU_type_0::SimdFloatMult             0      0.00%     83.20% # Type of FU issued
system.cpu0.iq.FU_type_0::SimdFloatMultAcc            0      0.00%     83.20% # Type of FU issued
system.cpu0.iq.FU_type_0::SimdFloatSqrt             0      0.00%     83.20% # Type of FU issued
system.cpu0.iq.FU_type_0::MemRead              923895     15.68%     98.89% # Type of FU issued
system.cpu0.iq.FU_type_0::MemWrite              62535      1.06%     99.95% # Type of FU issued
system.cpu0.iq.FU_type_0::FloatMemRead           2823      0.05%    100.00% # Type of FU issued
system.cpu0.iq.FU_type_0::FloatMemWrite           125      0.00%    100.00% # Type of FU issued
system.cpu0.iq.FU_type_0::IprAccess                 0      0.00%    100.00% # Type of FU issued
system.cpu0.iq.FU_type_0::InstPrefetch              0      0.00%    100.00% # Type of FU issued
system.cpu0.iq.FU_type_0::total               5890859                       # Type of FU issued
system.cpu0.iq.rate                          0.192924                       # Inst issue rate
system.cpu0.iq.fu_busy_cnt                      16713                       # FU busy when requested
system.cpu0.iq.fu_busy_rate                  0.002837                       # FU busy rate (busy events/executed inst)
system.cpu0.iq.int_inst_queue_reads          42235186                       # Number of integer instruction queue reads
system.cpu0.iq.int_inst_queue_writes         13642068                       # Number of integer instruction queue writes
system.cpu0.iq.int_inst_queue_wakeup_accesses      5647826                       # Number of integer instruction queue wakeup accesses
system.cpu0.iq.fp_inst_queue_reads              37182                       # Number of floating instruction queue reads
system.cpu0.iq.fp_inst_queue_writes             35850                       # Number of floating instruction queue writes
system.cpu0.iq.fp_inst_queue_wakeup_accesses        16002                       # Number of floating instruction queue wakeup accesses
system.cpu0.iq.vec_inst_queue_reads                 0                       # Number of vector instruction queue reads
system.cpu0.iq.vec_inst_queue_writes                0                       # Number of vector instruction queue writes
system.cpu0.iq.vec_inst_queue_wakeup_accesses            0                       # Number of vector instruction queue wakeup accesses
system.cpu0.iq.int_alu_accesses               5868193                       # Number of integer alu accesses
system.cpu0.iq.fp_alu_accesses                  19137                       # Number of floating point alu accesses
system.cpu0.iq.vec_alu_accesses                     0                       # Number of vector alu accesses
system.cpu0.iew.lsq.thread0.forwLoads            4775                       # Number of loads that had data forwarded from stores
system.cpu0.iew.lsq.thread0.invAddrLoads            0                       # Number of loads ignored due to an invalid address
system.cpu0.iew.lsq.thread0.squashedLoads      1025355                       # Number of loads squashed
system.cpu0.iew.lsq.thread0.ignoredResponses          178                       # Number of memory responses ignored because the instruction is squashed
system.cpu0.iew.lsq.thread0.memOrderViolation            4                       # Number of memory ordering violations
system.cpu0.iew.lsq.thread0.squashedStores        56858                       # Number of stores squashed
system.cpu0.iew.lsq.thread0.invAddrSwpfs            0                       # Number of software prefetches ignored due to an invalid address
system.cpu0.iew.lsq.thread0.blockedLoads            0                       # Number of blocked loads due to partial load-store forwarding
system.cpu0.iew.lsq.thread0.rescheduledLoads           38                       # Number of loads that were rescheduled
system.cpu0.iew.lsq.thread0.cacheBlocked         2107                       # Number of times an access to memory failed due to the cache being blocked
system.cpu0.iew.iewIdleCycles                       0                       # Number of cycles IEW is idle
system.cpu0.iew.iewSquashCycles                 80970                       # Number of cycles IEW is squashing
system.cpu0.iew.iewBlockCycles               24738104                       # Number of cycles IEW is blocking
system.cpu0.iew.iewUnblockCycles               291657                       # Number of cycles IEW is unblocking
system.cpu0.iew.iewDispatchedInsts            8334609                       # Number of instructions dispatched to IQ
system.cpu0.iew.iewDispSquashedInsts             4977                       # Number of squashed instructions skipped by dispatch
system.cpu0.iew.iewDispLoadInsts              1594829                       # Number of dispatched load instructions
system.cpu0.iew.iewDispStoreInsts               85234                       # Number of dispatched store instructions
system.cpu0.iew.iewDispNonSpecInsts              1916                       # Number of dispatched non-speculative instructions
system.cpu0.iew.iewIQFullEvents                 22302                       # Number of times the IQ has become full, causing a stall
system.cpu0.iew.iewLSQFullEvents                63161                       # Number of times the LSQ has become full, causing a stall
system.cpu0.iew.memOrderViolationEvents             4                       # Number of memory order violations
system.cpu0.iew.predictedTakenIncorrect         43293                       # Number of branches that were predicted taken incorrectly
system.cpu0.iew.predictedNotTakenIncorrect        45914                       # Number of branches that were predicted not taken incorrectly
system.cpu0.iew.branchMispredicts               89207                       # Number of branch mispredicts detected at execute
system.cpu0.iew.iewExecutedInsts              5785243                       # Number of executed instructions
system.cpu0.iew.iewExecLoadInsts               883714                       # Number of load instructions executed
system.cpu0.iew.iewExecSquashedInsts           105616                       # Number of squashed instructions skipped in execute
system.cpu0.iew.exec_swp                            0                       # number of swp insts executed
system.cpu0.iew.exec_nop                            0                       # number of nop insts executed
system.cpu0.iew.exec_refs                      941680                       # number of memory reference insts executed
system.cpu0.iew.exec_branches                  682250                       # Number of branches executed
system.cpu0.iew.exec_stores                     57966                       # Number of stores executed
system.cpu0.iew.exec_rate                    0.189465                       # Inst execution rate
system.cpu0.iew.wb_sent                       5682626                       # cumulative count of insts sent to commit
system.cpu0.iew.wb_count                      5663828                       # cumulative count of insts written-back
system.cpu0.iew.wb_producers                  4219583                       # num instructions producing a value
system.cpu0.iew.wb_consumers                  6601886                       # num instructions consuming a value
system.cpu0.iew.wb_rate                      0.185488                       # insts written-back per cycle
system.cpu0.iew.wb_fanout                    0.639148                       # average fanout of values written-back
system.cpu0.commit.commitSquashedInsts        5344043                       # The number of squashed insts skipped by commit
system.cpu0.commit.branchMispredicts            80967                       # The number of times a branch was mispredicted
system.cpu0.commit.committed_per_cycle::samples     29715868                       # Number of insts commited each cycle
system.cpu0.commit.committed_per_cycle::mean     0.100664                       # Number of insts commited each cycle
system.cpu0.commit.committed_per_cycle::stdev     0.586540                       # Number of insts commited each cycle
system.cpu0.commit.committed_per_cycle::underflows            0      0.00%      0.00% # Number of insts commited each cycle
system.cpu0.commit.committed_per_cycle::0     28424964     95.66%     95.66% # Number of insts commited each cycle
system.cpu0.commit.committed_per_cycle::1       597438      2.01%     97.67% # Number of insts commited each cycle
system.cpu0.commit.committed_per_cycle::2       137636      0.46%     98.13% # Number of insts commited each cycle
system.cpu0.commit.committed_per_cycle::3       379761      1.28%     99.41% # Number of insts commited each cycle
system.cpu0.commit.committed_per_cycle::4        73110      0.25%     99.65% # Number of insts commited each cycle
system.cpu0.commit.committed_per_cycle::5        39675      0.13%     99.79% # Number of insts commited each cycle
system.cpu0.commit.committed_per_cycle::6         6627      0.02%     99.81% # Number of insts commited each cycle
system.cpu0.commit.committed_per_cycle::7         4522      0.02%     99.82% # Number of insts commited each cycle
system.cpu0.commit.committed_per_cycle::8        52135      0.18%    100.00% # Number of insts commited each cycle
system.cpu0.commit.committed_per_cycle::overflows            0      0.00%    100.00% # Number of insts commited each cycle
system.cpu0.commit.committed_per_cycle::min_value            0                       # Number of insts commited each cycle
system.cpu0.commit.committed_per_cycle::max_value            8                       # Number of insts commited each cycle
system.cpu0.commit.committed_per_cycle::total     29715868                       # Number of insts commited each cycle
system.cpu0.commit.committedInsts             1496817                       # Number of instructions committed
system.cpu0.commit.committedOps               2991304                       # Number of ops (including micro ops) committed
system.cpu0.commit.swp_count                        0                       # Number of s/w prefetches committed
system.cpu0.commit.refs                        597850                       # Number of memory references committed
system.cpu0.commit.loads                       569474                       # Number of loads committed
system.cpu0.commit.membars                          0                       # Number of memory barriers committed
system.cpu0.commit.branches                    541287                       # Number of branches committed
system.cpu0.commit.vec_insts                        0                       # Number of committed Vector instructions.
system.cpu0.commit.fp_insts                     11326                       # Number of committed floating point instructions.
system.cpu0.commit.int_insts                  2979846                       # Number of committed integer instructions.
system.cpu0.commit.function_calls                5000                       # Number of function calls committed.
system.cpu0.commit.op_class_0::No_OpClass         3416      0.11%      0.11% # Class of committed instruction
system.cpu0.commit.op_class_0::IntAlu         2371890     79.29%     79.41% # Class of committed instruction
system.cpu0.commit.op_class_0::IntMult            200      0.01%     79.41% # Class of committed instruction
system.cpu0.commit.op_class_0::IntDiv            8264      0.28%     79.69% # Class of committed instruction
system.cpu0.commit.op_class_0::FloatAdd          9684      0.32%     80.01% # Class of committed instruction
system.cpu0.commit.op_class_0::FloatCmp             0      0.00%     80.01% # Class of committed instruction
system.cpu0.commit.op_class_0::FloatCvt             0      0.00%     80.01% # Class of committed instruction
system.cpu0.commit.op_class_0::FloatMult            0      0.00%     80.01% # Class of committed instruction
system.cpu0.commit.op_class_0::FloatMultAcc            0      0.00%     80.01% # Class of committed instruction
system.cpu0.commit.op_class_0::FloatDiv             0      0.00%     80.01% # Class of committed instruction
system.cpu0.commit.op_class_0::FloatMisc            0      0.00%     80.01% # Class of committed instruction
system.cpu0.commit.op_class_0::FloatSqrt            0      0.00%     80.01% # Class of committed instruction
system.cpu0.commit.op_class_0::SimdAdd              0      0.00%     80.01% # Class of committed instruction
system.cpu0.commit.op_class_0::SimdAddAcc            0      0.00%     80.01% # Class of committed instruction
system.cpu0.commit.op_class_0::SimdAlu              0      0.00%     80.01% # Class of committed instruction
system.cpu0.commit.op_class_0::SimdCmp              0      0.00%     80.01% # Class of committed instruction
system.cpu0.commit.op_class_0::SimdCvt              0      0.00%     80.01% # Class of committed instruction
system.cpu0.commit.op_class_0::SimdMisc             0      0.00%     80.01% # Class of committed instruction
system.cpu0.commit.op_class_0::SimdMult             0      0.00%     80.01% # Class of committed instruction
system.cpu0.commit.op_class_0::SimdMultAcc            0      0.00%     80.01% # Class of committed instruction
system.cpu0.commit.op_class_0::SimdShift            0      0.00%     80.01% # Class of committed instruction
system.cpu0.commit.op_class_0::SimdShiftAcc            0      0.00%     80.01% # Class of committed instruction
system.cpu0.commit.op_class_0::SimdSqrt             0      0.00%     80.01% # Class of committed instruction
system.cpu0.commit.op_class_0::SimdFloatAdd            0      0.00%     80.01% # Class of committed instruction
system.cpu0.commit.op_class_0::SimdFloatAlu            0      0.00%     80.01% # Class of committed instruction
system.cpu0.commit.op_class_0::SimdFloatCmp            0      0.00%     80.01% # Class of committed instruction
system.cpu0.commit.op_class_0::SimdFloatCvt            0      0.00%     80.01% # Class of committed instruction
system.cpu0.commit.op_class_0::SimdFloatDiv            0      0.00%     80.01% # Class of committed instruction
system.cpu0.commit.op_class_0::SimdFloatMisc            0      0.00%     80.01% # Class of committed instruction
system.cpu0.commit.op_class_0::SimdFloatMult            0      0.00%     80.01% # Class of committed instruction
system.cpu0.commit.op_class_0::SimdFloatMultAcc            0      0.00%     80.01% # Class of committed instruction
system.cpu0.commit.op_class_0::SimdFloatSqrt            0      0.00%     80.01% # Class of committed instruction
system.cpu0.commit.op_class_0::MemRead         567832     18.98%     99.00% # Class of committed instruction
system.cpu0.commit.op_class_0::MemWrite         28376      0.95%     99.95% # Class of committed instruction
system.cpu0.commit.op_class_0::FloatMemRead         1642      0.05%    100.00% # Class of committed instruction
system.cpu0.commit.op_class_0::FloatMemWrite            0      0.00%    100.00% # Class of committed instruction
system.cpu0.commit.op_class_0::IprAccess            0      0.00%    100.00% # Class of committed instruction
system.cpu0.commit.op_class_0::InstPrefetch            0      0.00%    100.00% # Class of committed instruction
system.cpu0.commit.op_class_0::total          2991304                       # Class of committed instruction
system.cpu0.commit.bw_lim_events                52135                       # number cycles where commit BW limit reached
system.cpu0.rob.rob_reads                    37999080                       # The number of ROB reads
system.cpu0.rob.rob_writes                   17423836                       # The number of ROB writes
system.cpu0.timesIdled                            571                       # Number of times that the entire CPU went into an idle state and unscheduled itself
system.cpu0.idleCycles                          67509                       # Total number of cycles that the CPU has spent unscheduled due to idling
system.cpu0.committedInsts                    1496817                       # Number of Instructions Simulated
system.cpu0.committedOps                      2991304                       # Number of Ops (including micro ops) Simulated
system.cpu0.cpi                             20.399747                       # CPI: Cycles Per Instruction
system.cpu0.cpi_total                       20.399747                       # CPI: Total CPI of All Threads
system.cpu0.ipc                              0.049020                       # IPC: Instructions Per Cycle
system.cpu0.ipc_total                        0.049020                       # IPC: Total IPC of All Threads
system.cpu0.int_regfile_reads                 5670191                       # number of integer regfile reads
system.cpu0.int_regfile_writes                4929505                       # number of integer regfile writes
system.cpu0.fp_regfile_reads                    28481                       # number of floating regfile reads
system.cpu0.fp_regfile_writes                   14125                       # number of floating regfile writes
system.cpu0.cc_regfile_reads                  3578289                       # number of cc regfile reads
system.cpu0.cc_regfile_writes                 1523706                       # number of cc regfile writes
system.cpu0.misc_regfile_reads                3062354                       # number of misc regfile reads
system.cpu0.dcache.tags.pwrStateResidencyTicks::UNDEFINED  15267344125                       # Cumulative time (in ticks) in various power states
system.cpu0.dcache.tags.replacements           297772                       # number of replacements
system.cpu0.dcache.tags.tagsinuse                1024                       # Cycle average of tags in use
system.cpu0.dcache.tags.total_refs             376146                       # Total number of references to valid blocks.
system.cpu0.dcache.tags.sampled_refs           297772                       # Sample count of references to valid blocks.
system.cpu0.dcache.tags.avg_refs             1.263201                       # Average number of references to valid blocks.
system.cpu0.dcache.tags.warmup_cycle                0                       # Cycle when the warmup percentage was hit.
system.cpu0.dcache.tags.occ_blocks::cpu0.data         1024                       # Average occupied blocks per requestor
system.cpu0.dcache.tags.occ_percent::cpu0.data            1                       # Average percentage of cache occupancy
system.cpu0.dcache.tags.occ_percent::total            1                       # Average percentage of cache occupancy
system.cpu0.dcache.tags.occ_task_id_blocks::1024         1024                       # Occupied blocks per task id
system.cpu0.dcache.tags.age_task_id_blocks_1024::0          142                       # Occupied blocks per task id
system.cpu0.dcache.tags.age_task_id_blocks_1024::1          877                       # Occupied blocks per task id
system.cpu0.dcache.tags.age_task_id_blocks_1024::2            5                       # Occupied blocks per task id
system.cpu0.dcache.tags.occ_task_id_percent::1024            1                       # Percentage of cache occupancy per task id
system.cpu0.dcache.tags.tag_accesses          3905792                       # Number of tag accesses
system.cpu0.dcache.tags.data_accesses         3905792                       # Number of data accesses
system.cpu0.dcache.pwrStateResidencyTicks::UNDEFINED  15267344125                       # Cumulative time (in ticks) in various power states
system.cpu0.dcache.ReadReq_hits::cpu0.data       349038                       # number of ReadReq hits
system.cpu0.dcache.ReadReq_hits::total         349038                       # number of ReadReq hits
system.cpu0.dcache.WriteReq_hits::cpu0.data        27257                       # number of WriteReq hits
system.cpu0.dcache.WriteReq_hits::total         27257                       # number of WriteReq hits
system.cpu0.dcache.demand_hits::cpu0.data       376295                       # number of demand (read+write) hits
system.cpu0.dcache.demand_hits::total          376295                       # number of demand (read+write) hits
system.cpu0.dcache.overall_hits::cpu0.data       376295                       # number of overall hits
system.cpu0.dcache.overall_hits::total         376295                       # number of overall hits
system.cpu0.dcache.ReadReq_misses::cpu0.data       524591                       # number of ReadReq misses
system.cpu0.dcache.ReadReq_misses::total       524591                       # number of ReadReq misses
system.cpu0.dcache.WriteReq_misses::cpu0.data         1119                       # number of WriteReq misses
system.cpu0.dcache.WriteReq_misses::total         1119                       # number of WriteReq misses
system.cpu0.dcache.demand_misses::cpu0.data       525710                       # number of demand (read+write) misses
system.cpu0.dcache.demand_misses::total        525710                       # number of demand (read+write) misses
system.cpu0.dcache.overall_misses::cpu0.data       525710                       # number of overall misses
system.cpu0.dcache.overall_misses::total       525710                       # number of overall misses
system.cpu0.dcache.ReadReq_miss_latency::cpu0.data  34859786500                       # number of ReadReq miss cycles
system.cpu0.dcache.ReadReq_miss_latency::total  34859786500                       # number of ReadReq miss cycles
system.cpu0.dcache.WriteReq_miss_latency::cpu0.data     38789499                       # number of WriteReq miss cycles
system.cpu0.dcache.WriteReq_miss_latency::total     38789499                       # number of WriteReq miss cycles
system.cpu0.dcache.demand_miss_latency::cpu0.data  34898575999                       # number of demand (read+write) miss cycles
system.cpu0.dcache.demand_miss_latency::total  34898575999                       # number of demand (read+write) miss cycles
system.cpu0.dcache.overall_miss_latency::cpu0.data  34898575999                       # number of overall miss cycles
system.cpu0.dcache.overall_miss_latency::total  34898575999                       # number of overall miss cycles
system.cpu0.dcache.ReadReq_accesses::cpu0.data       873629                       # number of ReadReq accesses(hits+misses)
system.cpu0.dcache.ReadReq_accesses::total       873629                       # number of ReadReq accesses(hits+misses)
system.cpu0.dcache.WriteReq_accesses::cpu0.data        28376                       # number of WriteReq accesses(hits+misses)
system.cpu0.dcache.WriteReq_accesses::total        28376                       # number of WriteReq accesses(hits+misses)
system.cpu0.dcache.demand_accesses::cpu0.data       902005                       # number of demand (read+write) accesses
system.cpu0.dcache.demand_accesses::total       902005                       # number of demand (read+write) accesses
system.cpu0.dcache.overall_accesses::cpu0.data       902005                       # number of overall (read+write) accesses
system.cpu0.dcache.overall_accesses::total       902005                       # number of overall (read+write) accesses
system.cpu0.dcache.ReadReq_miss_rate::cpu0.data     0.600473                       # miss rate for ReadReq accesses
system.cpu0.dcache.ReadReq_miss_rate::total     0.600473                       # miss rate for ReadReq accesses
system.cpu0.dcache.WriteReq_miss_rate::cpu0.data     0.039435                       # miss rate for WriteReq accesses
system.cpu0.dcache.WriteReq_miss_rate::total     0.039435                       # miss rate for WriteReq accesses
system.cpu0.dcache.demand_miss_rate::cpu0.data     0.582824                       # miss rate for demand accesses
system.cpu0.dcache.demand_miss_rate::total     0.582824                       # miss rate for demand accesses
system.cpu0.dcache.overall_miss_rate::cpu0.data     0.582824                       # miss rate for overall accesses
system.cpu0.dcache.overall_miss_rate::total     0.582824                       # miss rate for overall accesses
system.cpu0.dcache.ReadReq_avg_miss_latency::cpu0.data 66451.362109                       # average ReadReq miss latency
system.cpu0.dcache.ReadReq_avg_miss_latency::total 66451.362109                       # average ReadReq miss latency
system.cpu0.dcache.WriteReq_avg_miss_latency::cpu0.data 34664.431635                       # average WriteReq miss latency
system.cpu0.dcache.WriteReq_avg_miss_latency::total 34664.431635                       # average WriteReq miss latency
system.cpu0.dcache.demand_avg_miss_latency::cpu0.data 66383.702039                       # average overall miss latency
system.cpu0.dcache.demand_avg_miss_latency::total 66383.702039                       # average overall miss latency
system.cpu0.dcache.overall_avg_miss_latency::cpu0.data 66383.702039                       # average overall miss latency
system.cpu0.dcache.overall_avg_miss_latency::total 66383.702039                       # average overall miss latency
[...]
system.l2.ReadSharedReq_hits::cpu0.data        110872                       # number of ReadSharedReq hits
system.l2.ReadSharedReq_hits::total            110872                       # number of ReadSharedReq hits
system.l2.demand_hits::cpu0.data               111709                       # number of demand (read+write) hits
system.l2.demand_hits::total                   111709                       # number of demand (read+write) hits
system.l2.overall_hits::cpu0.data              111709                       # number of overall hits
system.l2.overall_hits::total                  111709                       # number of overall hits
system.l2.ReadExReq_misses::cpu0.data             275                       # number of ReadExReq misses
system.l2.ReadExReq_misses::total                 275                       # number of ReadExReq misses
system.l2.ReadSharedReq_misses::cpu0.data       185788                       # number of ReadSharedReq misses
system.l2.ReadSharedReq_misses::total          185788                       # number of ReadSharedReq misses
system.l2.demand_misses::cpu0.data             186063                       # number of demand (read+write) misses
system.l2.demand_misses::total                 186063                       # number of demand (read+write) misses
system.l2.overall_misses::cpu0.data            186063                       # number of overall misses
system.l2.overall_misses::total                186063                       # number of overall misses
system.l2.ReadExReq_miss_latency::cpu0.data     26550000                       # number of ReadExReq miss cycles
system.l2.ReadExReq_miss_latency::total      26550000                       # number of ReadExReq miss cycles
system.l2.ReadSharedReq_miss_latency::cpu0.data  17584629000                       # number of ReadSharedReq miss cycles
system.l2.ReadSharedReq_miss_latency::total  17584629000                       # number of ReadSharedReq miss cycles
system.l2.demand_miss_latency::cpu0.data  17611179000                       # number of demand (read+write) miss cycles
system.l2.demand_miss_latency::total      17611179000                       # number of demand (read+write) miss cycles
system.l2.overall_miss_latency::cpu0.data  17611179000                       # number of overall miss cycles
system.l2.overall_miss_latency::total     17611179000                       # number of overall miss cycles
system.l2.WritebackDirty_accesses::writebacks         3001                       # number of WritebackDirty accesses(hits+misses)
system.l2.WritebackDirty_accesses::total         3001                       # number of WritebackDirty accesses(hits+misses)
system.l2.ReadExReq_accesses::cpu0.data          1112                       # number of ReadExReq accesses(hits+misses)
system.l2.ReadExReq_accesses::total              1112                       # number of ReadExReq accesses(hits+misses)
system.l2.ReadSharedReq_accesses::cpu0.data       296660                       # number of ReadSharedReq accesses(hits+misses)
system.l2.ReadSharedReq_accesses::total        296660                       # number of ReadSharedReq accesses(hits+misses)
system.l2.demand_accesses::cpu0.data           297772                       # number of demand (read+write) accesses
system.l2.demand_accesses::total               297772                       # number of demand (read+write) accesses
system.l2.overall_accesses::cpu0.data          297772                       # number of overall (read+write) accesses
system.l2.overall_accesses::total              297772                       # number of overall (read+write) accesses
system.l2.ReadExReq_miss_rate::cpu0.data     0.247302                       # miss rate for ReadExReq accesses
system.l2.ReadExReq_miss_rate::total         0.247302                       # miss rate for ReadExReq accesses
system.l2.ReadSharedReq_miss_rate::cpu0.data     0.626266                       # miss rate for ReadSharedReq accesses
system.l2.ReadSharedReq_miss_rate::total     0.626266                       # miss rate for ReadSharedReq accesses
system.l2.demand_miss_rate::cpu0.data        0.624851                       # miss rate for demand accesses
system.l2.demand_miss_rate::total            0.624851                       # miss rate for demand accesses
system.l2.overall_miss_rate::cpu0.data       0.624851                       # miss rate for overall accesses
system.l2.overall_miss_rate::total           0.624851                       # miss rate for overall accesses
system.l2.ReadExReq_avg_miss_latency::cpu0.data 96545.454545                       # average ReadExReq miss latency
system.l2.ReadExReq_avg_miss_latency::total 96545.454545                       # average ReadExReq miss latency
system.l2.ReadSharedReq_avg_miss_latency::cpu0.data 94648.895515                       # average ReadSharedReq miss latency
system.l2.ReadSharedReq_avg_miss_latency::total 94648.895515                       # average ReadSharedReq miss latency
system.l2.demand_avg_miss_latency::cpu0.data 94651.698618                       # average overall miss latency
system.l2.demand_avg_miss_latency::total 94651.698618                       # average overall miss latency
system.l2.overall_avg_miss_latency::cpu0.data 94651.698618                       # average overall miss latency
system.l2.overall_avg_miss_latency::total 94651.698618                       # average overall miss latency
system.l2.blocked_cycles::no_mshrs                  0                       # number of cycles access was blocked
system.l2.blocked_cycles::no_targets                0                       # number of cycles access was blocked
system.l2.blocked::no_mshrs                         0                       # number of cycles access was blocked
system.l2.blocked::no_targets                       0                       # number of cycles access was blocked
system.l2.avg_blocked_cycles::no_mshrs            nan                       # average number of cycles each access was blocked
system.l2.avg_blocked_cycles::no_targets          nan                       # average number of cycles each access was blocked
system.l2.writebacks::writebacks                  385                       # number of writebacks
system.l2.writebacks::total                       385                       # number of writebacks
system.l2.ReadExReq_mshr_misses::cpu0.data          275                       # number of ReadExReq MSHR misses
system.l2.ReadExReq_mshr_misses::total            275                       # number of ReadExReq MSHR misses
system.l2.ReadSharedReq_mshr_misses::cpu0.data       185788                       # number of ReadSharedReq MSHR misses
system.l2.ReadSharedReq_mshr_misses::total       185788                       # number of ReadSharedReq MSHR misses
system.l2.demand_mshr_misses::cpu0.data        186063                       # number of demand (read+write) MSHR misses
system.l2.demand_mshr_misses::total            186063                       # number of demand (read+write) MSHR misses
system.l2.overall_mshr_misses::cpu0.data       186063                       # number of overall MSHR misses
system.l2.overall_mshr_misses::total           186063                       # number of overall MSHR misses
system.l2.ReadExReq_mshr_miss_latency::cpu0.data     23800000                       # number of ReadExReq MSHR miss cycles
system.l2.ReadExReq_mshr_miss_latency::total     23800000                       # number of ReadExReq MSHR miss cycles
system.l2.ReadSharedReq_mshr_miss_latency::cpu0.data  15726749000                       # number of ReadSharedReq MSHR miss cycles
system.l2.ReadSharedReq_mshr_miss_latency::total  15726749000                       # number of ReadSharedReq MSHR miss cycles
system.l2.demand_mshr_miss_latency::cpu0.data  15750549000                       # number of demand (read+write) MSHR miss cycles
system.l2.demand_mshr_miss_latency::total  15750549000                       # number of demand (read+write) MSHR miss cycles
system.l2.overall_mshr_miss_latency::cpu0.data  15750549000                       # number of overall MSHR miss cycles
system.l2.overall_mshr_miss_latency::total  15750549000                       # number of overall MSHR miss cycles
system.l2.ReadExReq_mshr_miss_rate::cpu0.data     0.247302                       # mshr miss rate for ReadExReq accesses
system.l2.ReadExReq_mshr_miss_rate::total     0.247302                       # mshr miss rate for ReadExReq accesses
system.l2.ReadSharedReq_mshr_miss_rate::cpu0.data     0.626266                       # mshr miss rate for ReadSharedReq accesses
system.l2.ReadSharedReq_mshr_miss_rate::total     0.626266                       # mshr miss rate for ReadSharedReq accesses
system.l2.demand_mshr_miss_rate::cpu0.data     0.624851                       # mshr miss rate for demand accesses
system.l2.demand_mshr_miss_rate::total       0.624851                       # mshr miss rate for demand accesses
system.l2.overall_mshr_miss_rate::cpu0.data     0.624851                       # mshr miss rate for overall accesses
system.l2.overall_mshr_miss_rate::total      0.624851                       # mshr miss rate for overall accesses
system.l2.ReadExReq_avg_mshr_miss_latency::cpu0.data 86545.454545                       # average ReadExReq mshr miss latency
system.l2.ReadExReq_avg_mshr_miss_latency::total 86545.454545                       # average ReadExReq mshr miss latency
system.l2.ReadSharedReq_avg_mshr_miss_latency::cpu0.data 84648.895515                       # average ReadSharedReq mshr miss latency
system.l2.ReadSharedReq_avg_mshr_miss_latency::total 84648.895515                       # average ReadSharedReq mshr miss latency
system.l2.demand_avg_mshr_miss_latency::cpu0.data 84651.698618                       # average overall mshr miss latency
system.l2.demand_avg_mshr_miss_latency::total 84651.698618                       # average overall mshr miss latency
system.l2.overall_avg_mshr_miss_latency::cpu0.data 84651.698618                       # average overall mshr miss latency
system.l2.overall_avg_mshr_miss_latency::total 84651.698618                       # average overall mshr miss latency
system.membus.snoop_filter.tot_requests        372124                       # Total number of requests made to the snoop filter.
system.membus.snoop_filter.hit_single_requests       186064                       # Number of requests hitting in the snoop filter with a single holder of the requested data.
system.membus.snoop_filter.hit_multi_requests            0                       # Number of requests hitting in the snoop filter with multiple (>1) holders of the requested data.
system.membus.snoop_filter.tot_snoops               0                       # Total number of snoops made to the snoop filter.
system.membus.snoop_filter.hit_single_snoops            0                       # Number of snoops hitting in the snoop filter with a single holder of the requested data.
system.membus.snoop_filter.hit_multi_snoops            0                       # Number of snoops hitting in the snoop filter with multiple (>1) holders of the requested data.
system.membus.pwrStateResidencyTicks::UNDEFINED  15267344125                       # Cumulative time (in ticks) in various power states
system.membus.trans_dist::ReadResp             185787                       # Transaction distribution
system.membus.trans_dist::WritebackDirty          385                       # Transaction distribution
system.membus.trans_dist::CleanEvict           185676                       # Transaction distribution
system.membus.trans_dist::ReadExReq               275                       # Transaction distribution
system.membus.trans_dist::ReadExResp              275                       # Transaction distribution
system.membus.trans_dist::ReadSharedReq        185788                       # Transaction distribution
system.membus.pkt_count_system.l2.mem_side::system.mem_ctrls.port       558186                       # Packet count per connected master and slave (bytes)
system.membus.pkt_count_system.l2.mem_side::total       558186                       # Packet count per connected master and slave (bytes)
system.membus.pkt_count::total                 558186                       # Packet count per connected master and slave (bytes)
system.membus.pkt_size_system.l2.mem_side::system.mem_ctrls.port     11932608                       # Cumulative packet size per connected master and slave (bytes)
system.membus.pkt_size_system.l2.mem_side::total     11932608                       # Cumulative packet size per connected master and slave (bytes)
system.membus.pkt_size::total                11932608                       # Cumulative packet size per connected master and slave (bytes)
system.membus.snoops                                0                       # Total snoops (count)
system.membus.snoopTraffic                          0                       # Total snoop traffic (bytes)
system.membus.snoop_fanout::samples            186063                       # Request fanout histogram
system.membus.snoop_fanout::mean                    0                       # Request fanout histogram
system.membus.snoop_fanout::stdev                   0                       # Request fanout histogram
system.membus.snoop_fanout::underflows              0      0.00%      0.00% # Request fanout histogram
system.membus.snoop_fanout::0                  186063    100.00%    100.00% # Request fanout histogram
system.membus.snoop_fanout::1                       0      0.00%    100.00% # Request fanout histogram
system.membus.snoop_fanout::overflows               0      0.00%    100.00% # Request fanout histogram
system.membus.snoop_fanout::min_value               0                       # Request fanout histogram
system.membus.snoop_fanout::max_value               0                       # Request fanout histogram
system.membus.snoop_fanout::total              186063                       # Request fanout histogram
system.membus.reqLayer8.occupancy           436227500                       # Layer occupancy (ticks)
system.membus.reqLayer8.utilization               2.9                       # Layer utilization (%)
system.membus.respLayer1.occupancy         1008138500                       # Layer occupancy (ticks)
system.membus.respLayer1.utilization              6.6                       # Layer utilization (%)
system.tol2bus.snoop_filter.tot_requests       595544                       # Total number of requests made to the snoop filter.
system.tol2bus.snoop_filter.hit_single_requests       297771                       # Number of requests hitting in the snoop filter with a single holder of the requested data.
system.tol2bus.snoop_filter.hit_multi_requests          393                       # Number of requests hitting in the snoop filter with multiple (>1) holders of the requested data.
system.tol2bus.snoop_filter.tot_snoops              2                       # Total number of snoops made to the snoop filter.
system.tol2bus.snoop_filter.hit_single_snoops            2                       # Number of snoops hitting in the snoop filter with a single holder of the requested data.
system.tol2bus.snoop_filter.hit_multi_snoops            0                       # Number of snoops hitting in the snoop filter with multiple (>1) holders of the requested data.
system.tol2bus.pwrStateResidencyTicks::UNDEFINED  15267344125                       # Cumulative time (in ticks) in various power states
system.tol2bus.trans_dist::ReadResp            296660                       # Transaction distribution
system.tol2bus.trans_dist::WritebackDirty         3386                       # Transaction distribution
system.tol2bus.trans_dist::CleanEvict          480449                       # Transaction distribution
system.tol2bus.trans_dist::ReadExReq             1112                       # Transaction distribution
system.tol2bus.trans_dist::ReadExResp            1112                       # Transaction distribution
system.tol2bus.trans_dist::ReadSharedReq       296660                       # Transaction distribution
system.tol2bus.pkt_count_system.cpu0.dcache.mem_side::system.l2.cpu_side       893316                       # Packet count per connected master and slave (bytes)
system.tol2bus.pkt_count::total                893316                       # Packet count per connected master and slave (bytes)
system.tol2bus.pkt_size_system.cpu0.dcache.mem_side::system.l2.cpu_side     19249472                       # Cumulative packet size per connected master and slave (bytes)
system.tol2bus.pkt_size::total               19249472                       # Cumulative packet size per connected master and slave (bytes)
system.tol2bus.snoops                          186063                       # Total snoops (count)
system.tol2bus.snoopTraffic                     24640                       # Total snoop traffic (bytes)
system.tol2bus.snoop_fanout::samples           483835                       # Request fanout histogram
system.tol2bus.snoop_fanout::mean            0.000814                       # Request fanout histogram
system.tol2bus.snoop_fanout::stdev           0.028525                       # Request fanout histogram
system.tol2bus.snoop_fanout::underflows             0      0.00%      0.00% # Request fanout histogram
system.tol2bus.snoop_fanout::0                 483441     99.92%     99.92% # Request fanout histogram
system.tol2bus.snoop_fanout::1                    394      0.08%    100.00% # Request fanout histogram
system.tol2bus.snoop_fanout::2                      0      0.00%    100.00% # Request fanout histogram
system.tol2bus.snoop_fanout::3                      0      0.00%    100.00% # Request fanout histogram
system.tol2bus.snoop_fanout::4                      0      0.00%    100.00% # Request fanout histogram
system.tol2bus.snoop_fanout::5                      0      0.00%    100.00% # Request fanout histogram
system.tol2bus.snoop_fanout::6                      0      0.00%    100.00% # Request fanout histogram
system.tol2bus.snoop_fanout::7                      0      0.00%    100.00% # Request fanout histogram
system.tol2bus.snoop_fanout::8                      0      0.00%    100.00% # Request fanout histogram
system.tol2bus.snoop_fanout::9                      0      0.00%    100.00% # Request fanout histogram
system.tol2bus.snoop_fanout::10                     0      0.00%    100.00% # Request fanout histogram
system.tol2bus.snoop_fanout::11                     0      0.00%    100.00% # Request fanout histogram
system.tol2bus.snoop_fanout::12                     0      0.00%    100.00% # Request fanout histogram
system.tol2bus.snoop_fanout::13                     0      0.00%    100.00% # Request fanout histogram
system.tol2bus.snoop_fanout::14                     0      0.00%    100.00% # Request fanout histogram
system.tol2bus.snoop_fanout::15                     0      0.00%    100.00% # Request fanout histogram
system.tol2bus.snoop_fanout::16                     0      0.00%    100.00% # Request fanout histogram
system.tol2bus.snoop_fanout::overflows              0      0.00%    100.00% # Request fanout histogram
system.tol2bus.snoop_fanout::min_value              0                       # Request fanout histogram
system.tol2bus.snoop_fanout::max_value              1                       # Request fanout histogram
system.tol2bus.snoop_fanout::total             483835                       # Request fanout histogram
system.tol2bus.reqLayer0.occupancy          300773000                       # Layer occupancy (ticks)
system.tol2bus.reqLayer0.utilization              2.0                       # Layer utilization (%)
system.tol2bus.respLayer1.occupancy         446658000                       # Layer occupancy (ticks)
system.tol2bus.respLayer1.utilization             2.9                       # Layer utilization (%)

---------- End Simulation Statistics   ----------
