
---------- Begin Simulation Statistics ----------
sim_seconds                                  0.015267                       # Number of seconds simulated
sim_ticks                                 15267344125                       # Number of ticks simulated
final_tick                                45802032375                       # Number of ticks from beginning of simulation (restored from checkpoints and never reset)
sim_freq                                 1000000000000                       # Frequency of simulated ticks
host_inst_rate                                 273601                       # Simulator instruction rate (inst/s)
host_op_rate                                   506210                       # Simulator op (including micro ops) rate (op/s)
host_tick_rate                               37356308                       # Simulator tick rate (ticks/s)
host_mem_usage                                2301632                       # Number of bytes of host memory used
host_seconds                                   408.70                       # Real time elapsed on the host
sim_insts                                   111819547                       # Number of instructions simulated
sim_ops                                     206885405                       # Number of ops (including micro ops) simulated
system.voltage_domain.voltage                       1                       # Voltage in Volts
system.clk_domain.clock                          1000                       # Clock period in ticks
system.mem_ctrls.pwrStateResidencyTicks::UNDEFINED  15267344125                       # Cumulative time (in ticks) in various power states
system.mem_ctrls.bytes_read::cpu0.inst            192                       # Number of bytes read from this memory
system.mem_ctrls.bytes_read::cpu0.data         219328                       # Number of bytes read from this memory
system.mem_ctrls.bytes_read::total             219520                       # Number of bytes read from this memory
system.mem_ctrls.bytes_inst_read::cpu0.inst          192                       # Number of instructions bytes read from this memory
system.mem_ctrls.bytes_inst_read::total           192                       # Number of instructions bytes read from this memory
system.mem_ctrls.num_reads::cpu0.inst               3                       # Number of read requests responded to by this memory
system.mem_ctrls.num_reads::cpu0.data            3427                       # Number of read requests responded to by this memory
system.mem_ctrls.num_reads::total                3430                       # Number of read requests responded to by this memory
system.mem_ctrls.bw_read::cpu0.inst             12576                       # Total read bandwidth from this memory (bytes/s)
system.mem_ctrls.bw_read::cpu0.data          14365825                       # Total read bandwidth from this memory (bytes/s)
system.mem_ctrls.bw_read::total              14378401                       # Total read bandwidth from this memory (bytes/s)
system.mem_ctrls.bw_inst_read::cpu0.inst        12576                       # Instruction read bandwidth from this memory (bytes/s)
system.mem_ctrls.bw_inst_read::total            12576                       # Instruction read bandwidth from this memory (bytes/s)
system.mem_ctrls.bw_total::cpu0.inst            12576                       # Total bandwidth to/from this memory (bytes/s)
system.mem_ctrls.bw_total::cpu0.data         14365825                       # Total bandwidth to/from this memory (bytes/s)
system.mem_ctrls.bw_total::total             14378401                       # Total bandwidth to/from this memory (bytes/s)
system.mem_ctrls.readReqs                        3430                       # Number of read requests accepted
system.mem_ctrls.writeReqs                          0                       # Number of write requests accepted
system.mem_ctrls.readBursts                      3430                       # Number of DRAM read bursts, including those serviced by the write queue
system.mem_ctrls.writeBursts                        0                       # Number of DRAM write bursts, including those merged in the write queue
system.mem_ctrls.bytesReadDRAM                 219520                       # Total number of bytes read from DRAM
system.mem_ctrls.bytesReadWrQ                       0                       # Total number of bytes read from write queue
system.mem_ctrls.bytesWritten                       0                       # Total number of bytes written to DRAM
system.mem_ctrls.bytesReadSys                  219520                       # Total read bytes from the system interface side
system.mem_ctrls.bytesWrittenSys                    0                       # Total written bytes from the system interface side
system.mem_ctrls.servicedByWrQ                      0                       # Number of DRAM read bursts serviced by the write queue
system.mem_ctrls.mergedWrBursts                     0                       # Number of DRAM write bursts merged with an existing one
system.mem_ctrls.neitherReadNorWriteReqs            0                       # Number of requests that are neither read nor write
system.mem_ctrls.perBankRdBursts::0               128                       # Per bank write bursts
system.mem_ctrls.perBankRdBursts::1               140                       # Per bank write bursts
system.mem_ctrls.perBankRdBursts::2               256                       # Per bank write bursts
system.mem_ctrls.perBankRdBursts::3               257                       # Per bank write bursts
system.mem_ctrls.perBankRdBursts::4               257                       # Per bank write bursts
system.mem_ctrls.perBankRdBursts::5               256                       # Per bank write bursts
system.mem_ctrls.perBankRdBursts::6               256                       # Per bank write bursts
system.mem_ctrls.perBankRdBursts::7               272                       # Per bank write bursts
system.mem_ctrls.perBankRdBursts::8               384                       # Per bank write bursts
system.mem_ctrls.perBankRdBursts::9               385                       # Per bank write bursts
system.mem_ctrls.perBankRdBursts::10              325                       # Per bank write bursts
system.mem_ctrls.perBankRdBursts::11              104                       # Per bank write bursts
system.mem_ctrls.perBankRdBursts::12               24                       # Per bank write bursts
system.mem_ctrls.perBankRdBursts::13              128                       # Per bank write bursts
system.mem_ctrls.perBankRdBursts::14              128                       # Per bank write bursts
system.mem_ctrls.perBankRdBursts::15              130                       # Per bank write bursts
system.mem_ctrls.perBankWrBursts::0                 0                       # Per bank write bursts
system.mem_ctrls.perBankWrBursts::1                 0                       # Per bank write bursts
system.mem_ctrls.perBankWrBursts::2                 0                       # Per bank write bursts
system.mem_ctrls.perBankWrBursts::3                 0                       # Per bank write bursts
system.mem_ctrls.perBankWrBursts::4                 0                       # Per bank write bursts
system.mem_ctrls.perBankWrBursts::5                 0                       # Per bank write bursts
system.mem_ctrls.perBankWrBursts::6                 0                       # Per bank write bursts
system.mem_ctrls.perBankWrBursts::7                 0                       # Per bank write bursts
system.mem_ctrls.perBankWrBursts::8                 0                       # Per bank write bursts
system.mem_ctrls.perBankWrBursts::9                 0                       # Per bank write bursts
system.mem_ctrls.perBankWrBursts::10                0                       # Per bank write bursts
system.mem_ctrls.perBankWrBursts::11                0                       # Per bank write bursts
system.mem_ctrls.perBankWrBursts::12                0                       # Per bank write bursts
system.mem_ctrls.perBankWrBursts::13                0                       # Per bank write bursts
system.mem_ctrls.perBankWrBursts::14                0                       # Per bank write bursts
system.mem_ctrls.perBankWrBursts::15                0                       # Per bank write bursts
system.mem_ctrls.numRdRetry                         0                       # Number of times read queue was full causing retry
system.mem_ctrls.numWrRetry                         0                       # Number of times write queue was full causing retry
system.mem_ctrls.totGap                   15266207000                       # Total gap between requests
system.mem_ctrls.readPktSize::0                     0                       # Read request sizes (log2)
system.mem_ctrls.readPktSize::1                     0                       # Read request sizes (log2)
system.mem_ctrls.readPktSize::2                     0                       # Read request sizes (log2)
system.mem_ctrls.readPktSize::3                     0                       # Read request sizes (log2)
system.mem_ctrls.readPktSize::4                     0                       # Read request sizes (log2)
system.mem_ctrls.readPktSize::5                     0                       # Read request sizes (log2)
system.mem_ctrls.readPktSize::6                  3430                       # Read request sizes (log2)
system.mem_ctrls.writePktSize::0                    0                       # Write request sizes (log2)
system.mem_ctrls.writePktSize::1                    0                       # Write request sizes (log2)
system.mem_ctrls.writePktSize::2                    0                       # Write request sizes (log2)
system.mem_ctrls.writePktSize::3                    0                       # Write request sizes (log2)
system.mem_ctrls.writePktSize::4                    0                       # Write request sizes (log2)
system.mem_ctrls.writePktSize::5                    0                       # Write request sizes (log2)
system.mem_ctrls.writePktSize::6                    0                       # Write request sizes (log2)
system.mem_ctrls.rdQLenPdf::0                    3429                       # What read queue length does an incoming req see
system.mem_ctrls.rdQLenPdf::1                       1                       # What read queue length does an incoming req see
system.mem_ctrls.rdQLenPdf::2                       0                       # What read queue length does an incoming req see
system.mem_ctrls.rdQLenPdf::3                       0                       # What read queue length does an incoming req see
system.mem_ctrls.rdQLenPdf::4                       0                       # What read queue length does an incoming req see
system.mem_ctrls.rdQLenPdf::5                       0                       # What read queue length does an incoming req see
system.mem_ctrls.rdQLenPdf::6                       0                       # What read queue length does an incoming req see
system.mem_ctrls.rdQLenPdf::7                       0                       # What read queue length does an incoming req see
system.mem_ctrls.rdQLenPdf::8                       0                       # What read queue length does an incoming req see
system.mem_ctrls.rdQLenPdf::9                       0                       # What read queue length does an incoming req see
system.mem_ctrls.rdQLenPdf::10                      0                       # What read queue length does an incoming req see
system.mem_ctrls.rdQLenPdf::11                      0                       # What read queue length does an incoming req see
system.mem_ctrls.rdQLenPdf::12                      0                       # What read queue length does an incoming req see
system.mem_ctrls.rdQLenPdf::13                      0                       # What read queue length does an incoming req see
system.mem_ctrls.rdQLenPdf::14                      0                       # What read queue length does an incoming req see
system.mem_ctrls.rdQLenPdf::15                      0                       # What read queue length does an incoming req see
system.mem_ctrls.rdQLenPdf::16                      0                       # What read queue length does an incoming req see
system.mem_ctrls.rdQLenPdf::17                      0                       # What read queue length does an incoming req see
system.mem_ctrls.rdQLenPdf::18                      0                       # What read queue length does an incoming req see
system.mem_ctrls.rdQLenPdf::19                      0                       # What read queue length does an incoming req see
system.mem_ctrls.rdQLenPdf::20                      0                       # What read queue length does an incoming req see
system.mem_ctrls.rdQLenPdf::21                      0                       # What read queue length does an incoming req see
system.mem_ctrls.rdQLenPdf::22                      0                       # What read queue length does an incoming req see
system.mem_ctrls.rdQLenPdf::23                      0                       # What read queue length does an incoming req see
system.mem_ctrls.rdQLenPdf::24                      0                       # What read queue length does an incoming req see
system.mem_ctrls.rdQLenPdf::25                      0                       # What read queue length does an incoming req see
system.mem_ctrls.rdQLenPdf::26                      0                       # What read queue length does an incoming req see
system.mem_ctrls.rdQLenPdf::27                      0                       # What read queue length does an incoming req see
system.mem_ctrls.rdQLenPdf::28                      0                       # What read queue length does an incoming req see
system.mem_ctrls.rdQLenPdf::29                      0                       # What read queue length does an incoming req see
system.mem_ctrls.rdQLenPdf::30                      0                       # What read queue length does an incoming req see
system.mem_ctrls.rdQLenPdf::31                      0                       # What read queue length does an incoming req see
system.mem_ctrls.wrQLenPdf::0                       0                       # What write queue length does an incoming req see
system.mem_ctrls.wrQLenPdf::1                       0                       # What write queue length does an incoming req see
system.mem_ctrls.wrQLenPdf::2                       0                       # What write queue length does an incoming req see
system.mem_ctrls.wrQLenPdf::3                       0                       # What write queue length does an incoming req see
system.mem_ctrls.wrQLenPdf::4                       0                       # What write queue length does an incoming req see
system.mem_ctrls.wrQLenPdf::5                       0                       # What write queue length does an incoming req see
system.mem_ctrls.wrQLenPdf::6                       0                       # What write queue length does an incoming req see
system.mem_ctrls.wrQLenPdf::7                       0                       # What write queue length does an incoming req see
system.mem_ctrls.wrQLenPdf::8                       0                       # What write queue length does an incoming req see
system.mem_ctrls.wrQLenPdf::9                       0                       # What write queue length does an incoming req see
system.mem_ctrls.wrQLenPdf::10                      0                       # What write queue length does an incoming req see
system.mem_ctrls.wrQLenPdf::11                      0                       # What write queue length does an incoming req see
system.mem_ctrls.wrQLenPdf::12                      0                       # What write queue length does an incoming req see
system.mem_ctrls.wrQLenPdf::13                      0                       # What write queue length does an incoming req see
system.mem_ctrls.wrQLenPdf::14                      0                       # What write queue length does an incoming req see
system.mem_ctrls.wrQLenPdf::15                      0                       # What write queue length does an incoming req see
system.mem_ctrls.wrQLenPdf::16                      0                       # What write queue length does an incoming req see
system.mem_ctrls.wrQLenPdf::17                      0                       # What write queue length does an incoming req see
system.mem_ctrls.wrQLenPdf::18                      0                       # What write queue length does an incoming req see
system.mem_ctrls.wrQLenPdf::19                      0                       # What write queue length does an incoming req see
system.mem_ctrls.wrQLenPdf::20                      0                       # What write queue length does an incoming req see
system.mem_ctrls.wrQLenPdf::21                      0                       # What write queue length does an incoming req see
system.mem_ctrls.wrQLenPdf::22                      0                       # What write queue length does an incoming req see
system.mem_ctrls.wrQLenPdf::23                      0                       # What write queue length does an incoming req see
system.mem_ctrls.wrQLenPdf::24                      0                       # What write queue length does an incoming req see
system.mem_ctrls.wrQLenPdf::25                      0                       # What write queue length does an incoming req see
system.mem_ctrls.wrQLenPdf::26                      0                       # What write queue length does an incoming req see
system.mem_ctrls.wrQLenPdf::27                      0                       # What write queue length does an incoming req see
system.mem_ctrls.wrQLenPdf::28                      0                       # What write queue length does an incoming req see
system.mem_ctrls.wrQLenPdf::29                      0                       # What write queue length does an incoming req see
system.mem_ctrls.wrQLenPdf::30                      0                       # What write queue length does an incoming req see
system.mem_ctrls.wrQLenPdf::31                      0                       # What write queue length does an incoming req see
system.mem_ctrls.wrQLenPdf::32                      0                       # What write queue length does an incoming req see
system.mem_ctrls.wrQLenPdf::33                      0                       # What write queue length does an incoming req see
system.mem_ctrls.wrQLenPdf::34                      0                       # What write queue length does an incoming req see
system.mem_ctrls.wrQLenPdf::35                      0                       # What write queue length does an incoming req see
system.mem_ctrls.wrQLenPdf::36                      0                       # What write queue length does an incoming req see
system.mem_ctrls.wrQLenPdf::37                      0                       # What write queue length does an incoming req see
system.mem_ctrls.wrQLenPdf::38                      0                       # What write queue length does an incoming req see
system.mem_ctrls.wrQLenPdf::39                      0                       # What write queue length does an incoming req see
system.mem_ctrls.wrQLenPdf::40                      0                       # What write queue length does an incoming req see
system.mem_ctrls.wrQLenPdf::41                      0                       # What write queue length does an incoming req see
system.mem_ctrls.wrQLenPdf::42                      0                       # What write queue length does an incoming req see
system.mem_ctrls.wrQLenPdf::43                      0                       # What write queue length does an incoming req see
system.mem_ctrls.wrQLenPdf::44                      0                       # What write queue length does an incoming req see
system.mem_ctrls.wrQLenPdf::45                      0                       # What write queue length does an incoming req see
system.mem_ctrls.wrQLenPdf::46                      0                       # What write queue length does an incoming req see
system.mem_ctrls.wrQLenPdf::47                      0                       # What write queue length does an incoming req see
system.mem_ctrls.wrQLenPdf::48                      0                       # What write queue length does an incoming req see
system.mem_ctrls.wrQLenPdf::49                      0                       # What write queue length does an incoming req see
system.mem_ctrls.wrQLenPdf::50                      0                       # What write queue length does an incoming req see
system.mem_ctrls.wrQLenPdf::51                      0                       # What write queue length does an incoming req see
system.mem_ctrls.wrQLenPdf::52                      0                       # What write queue length does an incoming req see
system.mem_ctrls.wrQLenPdf::53                      0                       # What write queue length does an incoming req see
system.mem_ctrls.wrQLenPdf::54                      0                       # What write queue length does an incoming req see
system.mem_ctrls.wrQLenPdf::55                      0                       # What write queue length does an incoming req see
system.mem_ctrls.wrQLenPdf::56                      0                       # What write queue length does an incoming req see
system.mem_ctrls.wrQLenPdf::57                      0                       # What write queue length does an incoming req see
system.mem_ctrls.wrQLenPdf::58                      0                       # What write queue length does an incoming req see
system.mem_ctrls.wrQLenPdf::59                      0                       # What write queue length does an incoming req see
system.mem_ctrls.wrQLenPdf::60                      0                       # What write queue length does an incoming req see
system.mem_ctrls.wrQLenPdf::61                      0                       # What write queue length does an incoming req see
system.mem_ctrls.wrQLenPdf::62                      0                       # What write queue length does an incoming req see
system.mem_ctrls.wrQLenPdf::63                      0                       # What write queue length does an incoming req see
system.mem_ctrls.bytesPerActivate::samples         3369                       # Bytes accessed per row activation
system.mem_ctrls.bytesPerActivate::mean     65.215791                       # Bytes accessed per row activation
system.mem_ctrls.bytesPerActivate::gmean    64.842758                       # Bytes accessed per row activation
system.mem_ctrls.bytesPerActivate::stdev     8.876229                       # Bytes accessed per row activation
system.mem_ctrls.bytesPerActivate::64-79         3306     98.13%     98.13% # Bytes accessed per row activation
system.mem_ctrls.bytesPerActivate::128-143           62      1.84%     99.97% # Bytes accessed per row activation
system.mem_ctrls.bytesPerActivate::192-207            1      0.03%    100.00% # Bytes accessed per row activation
system.mem_ctrls.bytesPerActivate::total         3369                       # Bytes accessed per row activation
system.mem_ctrls.totQLat                    278595000                       # Total ticks spent queuing
system.mem_ctrls.totMemAccLat               342907500                       # Total ticks spent from burst creation until serviced by the DRAM
system.mem_ctrls.totBusLat                   17150000                       # Total ticks spent in databus transfers
system.mem_ctrls.avgQLat                     81223.03                       # Average queueing delay per DRAM burst
system.mem_ctrls.avgBusLat                    5000.00                       # Average bus latency per DRAM burst
system.mem_ctrls.avgMemAccLat                99973.03                       # Average memory access latency per DRAM burst
system.mem_ctrls.avgRdBW                        14.38                       # Average DRAM read bandwidth in MiByte/s
system.mem_ctrls.avgWrBW                         0.00                       # Average achieved write bandwidth in MiByte/s
system.mem_ctrls.avgRdBWSys                     14.38                       # Average system read bandwidth in MiByte/s
system.mem_ctrls.avgWrBWSys                      0.00                       # Average system write bandwidth in MiByte/s
system.mem_ctrls.peakBW                      12800.00                       # Theoretical peak bandwidth in MiByte/s
system.mem_ctrls.busUtil                         0.11                       # Data bus utilization in percentage
system.mem_ctrls.busUtilRead                     0.11                       # Data bus utilization in percentage for reads
system.mem_ctrls.busUtilWrite                    0.00                       # Data bus utilization in percentage for writes
system.mem_ctrls.avgRdQLen                       1.00                       # Average read queue length when enqueuing
system.mem_ctrls.avgWrQLen                       0.00                       # Average write queue length when enqueuing
system.mem_ctrls.readRowHits                       62                       # Number of row buffer hits during reads
system.mem_ctrls.writeRowHits                       0                       # Number of row buffer hits during writes
system.mem_ctrls.readRowHitRate                  1.81                       # Row buffer hit rate for reads
system.mem_ctrls.writeRowHitRate                  nan                       # Row buffer hit rate for writes
system.mem_ctrls.avgGap                    4450789.21                       # Average gap between requests
system.mem_ctrls.pageHitRate                     1.81                       # Row buffer hit rate, read and write combined
system.mem_ctrls_0.actEnergy                 12787740                       # Energy for activate commands per rank (pJ)
system.mem_ctrls_0.preEnergy                  6796845                       # Energy for precharge commands per rank (pJ)
system.mem_ctrls_0.readEnergy                13009080                       # Energy for read commands per rank (pJ)
system.mem_ctrls_0.writeEnergy                      0                       # Energy for write commands per rank (pJ)
system.mem_ctrls_0.refreshEnergy         961911600.000000                       # Energy for refresh commands per rank (pJ)
system.mem_ctrls_0.actBackEnergy            207587730                       # Energy for active background per rank (pJ)
system.mem_ctrls_0.preBackEnergy             32192640                       # Energy for precharge background per rank (pJ)
system.mem_ctrls_0.actPowerDownEnergy      2635857270                       # Energy for active power-down per rank (pJ)
system.mem_ctrls_0.prePowerDownEnergy      1851067200                       # Energy for precharge power-down per rank (pJ)
system.mem_ctrls_0.selfRefreshEnergy       1070630700                       # Energy for self refresh per rank (pJ)
system.mem_ctrls_0.totalEnergy             6792513825                       # Total energy per rank (pJ)
system.mem_ctrls_0.averagePower            444.904744                       # Core power per rank (mW)
system.mem_ctrls_0.totalIdleTime          10821872000                       # Total Idle time Per DRAM Rank
system.mem_ctrls_0.memoryStateTime::IDLE     45540000                       # Time in different power states
system.mem_ctrls_0.memoryStateTime::REF     407989750                       # Time in different power states
system.mem_ctrls_0.memoryStateTime::SREF   4125818875                       # Time in different power states
system.mem_ctrls_0.memoryStateTime::PRE_PDN   4820543000                       # Time in different power states
system.mem_ctrls_0.memoryStateTime::ACT      86948250                       # Time in different power states
system.mem_ctrls_0.memoryStateTime::ACT_PDN   5780504250                       # Time in different power states
system.mem_ctrls_1.actEnergy                 11259780                       # Energy for activate commands per rank (pJ)
system.mem_ctrls_1.preEnergy                  5988510                       # Energy for precharge commands per rank (pJ)
system.mem_ctrls_1.readEnergy                11481120                       # Energy for read commands per rank (pJ)
system.mem_ctrls_1.writeEnergy                      0                       # Energy for write commands per rank (pJ)
system.mem_ctrls_1.refreshEnergy         979121520.000000                       # Energy for refresh commands per rank (pJ)
system.mem_ctrls_1.actBackEnergy            207024000                       # Energy for active background per rank (pJ)
system.mem_ctrls_1.preBackEnergy             40522560                       # Energy for precharge background per rank (pJ)
system.mem_ctrls_1.actPowerDownEnergy      2593132350                       # Energy for active power-down per rank (pJ)
system.mem_ctrls_1.prePowerDownEnergy      1734760800                       # Energy for precharge power-down per rank (pJ)
system.mem_ctrls_1.selfRefreshEnergy       1205097900                       # Energy for self refresh per rank (pJ)
system.mem_ctrls_1.totalEnergy             6789332580                       # Total energy per rank (pJ)
system.mem_ctrls_1.averagePower            444.696374                       # Core power per rank (mW)
system.mem_ctrls_1.totalIdleTime          14704613250                       # Total Idle time Per DRAM Rank
system.mem_ctrls_1.memoryStateTime::IDLE     66126000                       # Time in different power states
system.mem_ctrls_1.memoryStateTime::REF     415638000                       # Time in different power states
system.mem_ctrls_1.memoryStateTime::SREF   4501400750                       # Time in different power states
system.mem_ctrls_1.memoryStateTime::PRE_PDN   4517727125                       # Time in different power states
system.mem_ctrls_1.memoryStateTime::ACT      79884500                       # Time in different power states
system.mem_ctrls_1.memoryStateTime::ACT_PDN   5686567750                       # Time in different power states
system.pwrStateResidencyTicks::UNDEFINED  15267344125                       # Cumulative time (in ticks) in various power states
system.cpu0.branchPred.lookups               13208705                       # Number of BP lookups
system.cpu0.branchPred.condPredicted         13208705                       # Number of conditional branches predicted
system.cpu0.branchPred.condIncorrect          1081763                       # Number of conditional branches incorrect
system.cpu0.branchPred.BTBLookups            10938017                       # Number of BTB lookups
system.cpu0.branchPred.BTBHits                      0                       # Number of BTB hits
system.cpu0.branchPred.BTBCorrect                   0                       # Number of correct BTB predictions (this stat may not work properly.
system.cpu0.branchPred.BTBHitPct             0.000000                       # BTB Hit Percentage
system.cpu0.branchPred.usedRAS                1016877                       # Number of times the RAS was used to get a target.
system.cpu0.branchPred.RASInCorrect            213950                       # Number of incorrect RAS predictions.
system.cpu0.branchPred.indirectLookups       10938017                       # Number of indirect predictor lookups.
system.cpu0.branchPred.indirectHits           3608121                       # Number of indirect target hits.
system.cpu0.branchPred.indirectMisses         7329896                       # Number of indirect misses.
system.cpu0.branchPredindirectMispredicted       784765                       # Number of mispredicted indirect branches.
system.cpu_voltage_domain.voltage                   1                       # Voltage in Volts
system.cpu_clk_domain.clock                       500                       # Clock period in ticks
system.cpu0.dtb.walker.pwrStateResidencyTicks::UNDEFINED  15267344125                       # Cumulative time (in ticks) in various power states
system.cpu0.dtb.rdAccesses                   10102967                       # TLB accesses on read requests
system.cpu0.dtb.wrAccesses                    7589004                       # TLB accesses on write requests
system.cpu0.dtb.rdMisses                       137609                       # TLB misses on read requests
system.cpu0.dtb.wrMisses                        48660                       # TLB misses on write requests
system.cpu0.apic_clk_domain.clock                8000                       # Clock period in ticks
system.cpu0.interrupts.pwrStateResidencyTicks::UNDEFINED  15267344125                       # Cumulative time (in ticks) in various power states
system.cpu0.itb.walker.pwrStateResidencyTicks::UNDEFINED  15267344125                       # Cumulative time (in ticks) in various power states
system.cpu0.itb.rdAccesses                          0                       # TLB accesses on read requests
system.cpu0.itb.wrAccesses                    9017457                       # TLB accesses on write requests
system.cpu0.itb.rdMisses                            0                       # TLB misses on read requests
system.cpu0.itb.wrMisses                        14508                       # TLB misses on write requests
system.cpu0.workload.numSyscalls                   24                       # Number of system calls
system.cpu0.pwrStateResidencyTicks::ON    15267344125                       # Cumulative time (in ticks) in various power states
system.cpu0.numCycles                        30534688                       # number of cpu cycles simulated
system.cpu0.numWorkItemsStarted                     0                       # number of work items this cpu started
system.cpu0.numWorkItemsCompleted                   0                       # number of work items this cpu completed
system.cpu0.fetch.icacheStallCycles           9744745                       # Number of cycles fetch is stalled on an Icache miss
system.cpu0.fetch.Insts                      59854386                       # Number of instructions fetch has processed
system.cpu0.fetch.Branches                   13208705                       # Number of branches that fetch encountered
system.cpu0.fetch.predictedBranches           4624998                       # Number of branches that fetch has predicted taken
system.cpu0.fetch.Cycles                     19626946                       # Number of cycles fetch has run and was not squashing or blocked
system.cpu0.fetch.SquashCycles                2180328                       # Number of cycles fetch has spent squashing
system.cpu0.fetch.MiscStallCycles                8140                       # Number of cycles fetch has spent waiting on interrupts, or bad addresses, or out of MSHRs
system.cpu0.fetch.PendingTrapStallCycles        64399                       # Number of stall cycles due to pending traps
system.cpu0.fetch.CacheLines                  9002949                       # Number of cache lines fetched
system.cpu0.fetch.IcacheSquashes               266798                       # Number of outstanding Icache misses that were squashed
system.cpu0.fetch.rateDist::samples          30534394                       # Number of instructions fetched each cycle (Total)
system.cpu0.fetch.rateDist::mean             3.753310                       # Number of instructions fetched each cycle (Total)
system.cpu0.fetch.rateDist::stdev            3.578252                       # Number of instructions fetched each cycle (Total)
system.cpu0.fetch.rateDist::underflows              0      0.00%      0.00% # Number of instructions fetched each cycle (Total)
system.cpu0.fetch.rateDist::0                12278478     40.21%     40.21% # Number of instructions fetched each cycle (Total)
system.cpu0.fetch.rateDist::1                  865870      2.84%     43.05% # Number of instructions fetched each cycle (Total)
system.cpu0.fetch.rateDist::2                 1245145      4.08%     47.13% # Number of instructions fetched each cycle (Total)
system.cpu0.fetch.rateDist::3                 1407296      4.61%     51.73% # Number of instructions fetched each cycle (Total)
system.cpu0.fetch.rateDist::4                 1147359      3.76%     55.49% # Number of instructions fetched each cycle (Total)
system.cpu0.fetch.rateDist::5                 1116059      3.66%     59.15% # Number of instructions fetched each cycle (Total)
system.cpu0.fetch.rateDist::6                 1015704      3.33%     62.47% # Number of instructions fetched each cycle (Total)
system.cpu0.fetch.rateDist::7                  904827      2.96%     65.44% # Number of instructions fetched each cycle (Total)
system.cpu0.fetch.rateDist::8                10553656     34.56%    100.00% # Number of instructions fetched each cycle (Total)
system.cpu0.fetch.rateDist::overflows               0      0.00%    100.00% # Number of instructions fetched each cycle (Total)
system.cpu0.fetch.rateDist::min_value               0                       # Number of instructions fetched each cycle (Total)
system.cpu0.fetch.rateDist::max_value               8                       # Number of instructions fetched each cycle (Total)
system.cpu0.fetch.rateDist::total            30534394                       # Number of instructions fetched each cycle (Total)
system.cpu0.fetch.branchRate                 0.432580                       # Number of branch fetches per cycle
system.cpu0.fetch.rate                       1.960210                       # Number of inst fetches per cycle
system.cpu0.decode.IdleCycles                 8639542                       # Number of cycles decode is idle
system.cpu0.decode.BlockedCycles              4156409                       # Number of cycles decode is blocked
system.cpu0.decode.RunCycles                 15690232                       # Number of cycles decode is running
system.cpu0.decode.UnblockCycles               958047                       # Number of cycles decode is unblocking
system.cpu0.decode.SquashCycles               1090164                       # Number of cycles decode is squashing
system.cpu0.decode.DecodedInsts             109068277                       # Number of instructions handled by decode
system.cpu0.rename.SquashCycles               1090164                       # Number of cycles rename is squashing
system.cpu0.rename.IdleCycles                 9411076                       # Number of cycles rename is idle
system.cpu0.rename.BlockCycles                3254711                       # Number of cycles rename is blocking
system.cpu0.rename.serializeStallCycles         24302                       # count of cycles rename stalled for serializing inst
system.cpu0.rename.RunCycles                 15815379                       # Number of cycles rename is running
system.cpu0.rename.UnblockCycles               938762                       # Number of cycles rename is unblocking
system.cpu0.rename.RenamedInsts             103981290                       # Number of instructions processed by rename
system.cpu0.rename.ROBFullEvents                  145                       # Number of times rename has blocked due to ROB full
system.cpu0.rename.IQFullEvents                 65040                       # Number of times rename has blocked due to IQ full
system.cpu0.rename.LQFullEvents                    88                       # Number of times rename has blocked due to LQ full
system.cpu0.rename.SQFullEvents                821883                       # Number of times rename has blocked due to SQ full
system.cpu0.rename.RenamedOperands          110449439                       # Number of destination operands rename has renamed
system.cpu0.rename.RenameLookups            261518835                       # Number of register rename lookups that rename has made
system.cpu0.rename.int_rename_lookups       156305916                       # Number of integer rename lookups
system.cpu0.rename.fp_rename_lookups          3230720                       # Number of floating rename lookups
system.cpu0.rename.CommittedMaps             68787239                       # Number of HB maps that are committed
system.cpu0.rename.UndoneMaps                41662246                       # Number of HB maps that are undone due to squashing
system.cpu0.rename.serializingInsts              1223                       # count of serializing insts renamed
system.cpu0.rename.tempSerializingInsts          1600                       # count of temporary serializing insts renamed
system.cpu0.rename.skidInsts                   909884                       # count of insts added to the skid buffer
system.cpu0.memDep0.insertedLoads            12030048                       # Number of loads inserted to the mem dependence unit.
system.cpu0.memDep0.insertedStores            9003888                       # Number of stores inserted to the mem dependence unit.
system.cpu0.memDep0.conflictingLoads           531393                       # Number of conflicting loads.
system.cpu0.memDep0.conflictingStores          215368                       # Number of conflicting stores.
system.cpu0.iq.iqInstsAdded                  93639791                       # Number of instructions added to the IQ (excludes non-spec)
system.cpu0.iq.iqNonSpecInstsAdded              67876                       # Number of non-speculative instructions added to the IQ
system.cpu0.iq.iqInstsIssued                 83519617                       # Number of instructions issued
system.cpu0.iq.iqSquashedInstsIssued           462667                       # Number of squashed instructions issued
system.cpu0.iq.iqSquashedInstsExamined       29208859                       # Number of squashed instructions iterated over during squash; mainly for profiling
system.cpu0.iq.iqSquashedOperandsExamined     42628937                       # Number of squashed operands that are examined and possibly removed from graph
system.cpu0.iq.iqSquashedNonSpecRemoved         67852                       # Number of squashed non-spec instructions that were removed
system.cpu0.iq.issued_per_cycle::samples     30534394                       # Number of insts issued each cycle
system.cpu0.iq.issued_per_cycle::mean        2.735264                       # Number of insts issued each cycle
system.cpu0.iq.issued_per_cycle::stdev       2.519348                       # Number of insts issued each cycle
system.cpu0.iq.issued_per_cycle::underflows            0      0.00%      0.00% # Number of insts issued each cycle
system.cpu0.iq.issued_per_cycle::0            9669607     31.67%     31.67% # Number of insts issued each cycle
system.cpu0.iq.issued_per_cycle::1            2887561      9.46%     41.12% # Number of insts issued each cycle
system.cpu0.iq.issued_per_cycle::2            3088349     10.11%     51.24% # Number of insts issued each cycle
system.cpu0.iq.issued_per_cycle::3            3148775     10.31%     61.55% # Number of insts issued each cycle
system.cpu0.iq.issued_per_cycle::4            3165592     10.37%     71.92% # Number of insts issued each cycle
system.cpu0.iq.issued_per_cycle::5            2799184      9.17%     81.09% # Number of insts issued each cycle
system.cpu0.iq.issued_per_cycle::6            3100775     10.16%     91.24% # Number of insts issued each cycle
system.cpu0.iq.issued_per_cycle::7            1650313      5.40%     96.65% # Number of insts issued each cycle
system.cpu0.iq.issued_per_cycle::8            1024238      3.35%    100.00% # Number of insts issued each cycle
system.cpu0.iq.issued_per_cycle::overflows            0      0.00%    100.00% # Number of insts issued each cycle
system.cpu0.iq.issued_per_cycle::min_value            0                       # Number of insts issued each cycle
system.cpu0.iq.issued_per_cycle::max_value            8                       # Number of insts issued each cycle
system.cpu0.iq.issued_per_cycle::total       30534394                       # Number of insts issued each cycle
system.cpu0.iq.fu_full::No_OpClass                  0      0.00%      0.00% # attempts to use FU when none available
system.cpu0.iq.fu_full::IntAlu                 818665     73.40%     73.40% # attempts to use FU when none available
system.cpu0.iq.fu_full::IntMult                     0      0.00%     73.40% # attempts to use FU when none available
system.cpu0.iq.fu_full::IntDiv                      0      0.00%     73.40% # attempts to use FU when none available
system.cpu0.iq.fu_full::FloatAdd                14169      1.27%     74.67% # attempts to use FU when none available
system.cpu0.iq.fu_full::FloatCmp                    0      0.00%     74.67% # attempts to use FU when none available
system.cpu0.iq.fu_full::FloatCvt                    0      0.00%     74.67% # attempts to use FU when none available
system.cpu0.iq.fu_full::FloatMult                   0      0.00%     74.67% # attempts to use FU when none available
system.cpu0.iq.fu_full::FloatMultAcc                0      0.00%     74.67% # attempts to use FU when none available
system.cpu0.iq.fu_full::FloatDiv                    0      0.00%     74.67% # attempts to use FU when none available
system.cpu0.iq.fu_full::FloatMisc                   0      0.00%     74.67% # attempts to use FU when none available
system.cpu0.iq.fu_full::FloatSqrt                   0      0.00%     74.67% # attempts to use FU when none available
system.cpu0.iq.fu_full::SimdAdd                     0      0.00%     74.67% # attempts to use FU when none available
system.cpu0.iq.fu_full::SimdAddAcc                  0      0.00%     74.67% # attempts to use FU when none available
system.cpu0.iq.fu_full::SimdAlu                     0      0.00%     74.67% # attempts to use FU when none available
system.cpu0.iq.fu_full::SimdCmp                     0      0.00%     74.67% # attempts to use FU when none available
system.cpu0.iq.fu_full::SimdCvt                     0      0.00%     74.67% # attempts to use FU when none available
system.cpu0.iq.fu_full::SimdMisc                    0      0.00%     74.67% # attempts to use FU when none available
system.cpu0.iq.fu_full::SimdMult                    0      0.00%     74.67% # attempts to use FU when none available
system.cpu0.iq.fu_full::SimdMultAcc                 0      0.00%     74.67% # attempts to use FU when none available
system.cpu0.iq.fu_full::SimdShift                   0      0.00%     74.67% # attempts to use FU when none available
system.cpu0.iq.fu_full::SimdShiftAcc                0      0.00%     74.67% # attempts to use FU when none available
system.cpu0.iq.fu_full::SimdSqrt                    0      0.00%     74.67% # attempts to use FU when none available
system.cpu0.iq.fu_full::SimdFloatAdd                0      0.00%     74.67% # attempts to use FU when none available
system.cpu0.iq.fu_full::SimdFloatAlu                0      0.00%     74.67% # attempts to use FU when none available
system.cpu0.iq.fu_full::SimdFloatCmp                0      0.00%     74.67% # attempts to use FU when none available
system.cpu0.iq.fu_full::SimdFloatCvt                0      0.00%     74.67% # attempts to use FU when none available
system.cpu0.iq.fu_full::SimdFloatDiv                0      0.00%     74.67% # attempts to use FU when none available
system.cpu0.iq.fu_full::SimdFloatMisc               0      0.00%     74.67% # attempts to use FU when none available
system.cpu0.iq.fu_full::SimdFloatMult               0      0.00%     74.67% # attempts to use FU when none available
system.cpu0.iq.fu_full::SimdFloatMultAcc            0      0.00%     74.67% # attempts to use FU when none available
system.cpu0.iq.fu_full::SimdFloatSqrt               0      0.00%     74.67% # attempts to use FU when none available
system.cpu0.iq.fu_full::MemRead                106113      9.51%     84.19% # attempts to use FU when none available
system.cpu0.iq.fu_full::MemWrite                87273      7.82%     92.01% # attempts to use FU when none available
system.cpu0.iq.fu_full::FloatMemRead              470      0.04%     92.05% # attempts to use FU when none available
system.cpu0.iq.fu_full::FloatMemWrite           88633      7.95%    100.00% # attempts to use FU when none available
system.cpu0.iq.fu_full::IprAccess                   0      0.00%    100.00% # attempts to use FU when none available
system.cpu0.iq.fu_full::InstPrefetch                0      0.00%    100.00% # attempts to use FU when none available
system.cpu0.iq.FU_type_0::No_OpClass           519597      0.62%      0.62% # Type of FU issued
system.cpu0.iq.FU_type_0::IntAlu             63088086     75.54%     76.16% # Type of FU issued
system.cpu0.iq.FU_type_0::IntMult               56101      0.07%     76.23% # Type of FU issued
system.cpu0.iq.FU_type_0::IntDiv                88934      0.11%     76.33% # Type of FU issued
system.cpu0.iq.FU_type_0::FloatAdd            1190449      1.43%     77.76% # Type of FU issued
system.cpu0.iq.FU_type_0::FloatCmp                  0      0.00%     77.76% # Type of FU issued
system.cpu0.iq.FU_type_0::FloatCvt                  0      0.00%     77.76% # Type of FU issued
system.cpu0.iq.FU_type_0::FloatMult                 0      0.00%     77.76% # Type of FU issued
system.cpu0.iq.FU_type_0::FloatMultAcc              0      0.00%     77.76% # Type of FU issued
system.cpu0.iq.FU_type_0::FloatDiv                  0      0.00%     77.76% # Type of FU issued
system.cpu0.iq.FU_type_0::FloatMisc                 0      0.00%     77.76% # Type of FU issued
system.cpu0.iq.FU_type_0::FloatSqrt                 0      0.00%     77.76% # Type of FU issued
system.cpu0.iq.FU_type_0::SimdAdd                   0      0.00%     77.76% # Type of FU issued
system.cpu0.iq.FU_type_0::SimdAddAcc                0      0.00%     77.76% # Type of FU issued
system.cpu0.iq.FU_type_0::SimdAlu                   0      0.00%     77.76% # Type of FU issued
system.cpu0.iq.FU_type_0::SimdCmp                   0      0.00%     77.76% # Type of FU issued
system.cpu0.iq.FU_type_0::SimdCvt                   0      0.00%     77.76% # Type of FU issued
system.cpu0.iq.FU_type_0::SimdMisc                  0      0.00%     77.76% # Type of FU issued
system.cpu0.iq.FU_type_0::SimdMult                  0      0.00%     77.76% # Type of FU issued
system.cpu0.iq.FU_type_0::SimdMultAcc               0      0.00%     77.76% # Type of FU issued
system.cpu0.iq.FU_type_0::SimdShift                 0      0.00%     77.76% # Type of FU issued
system.cpu0.iq.FU_type_0::SimdShiftAcc              0      0.00%     77.76% # Type of FU issued
system.cpu0.iq.FU_type_0::SimdSqrt                  0      0.00%     77.76% # Type of FU issued
system.cpu0.iq.FU_type_0::SimdFloatAdd              0      0.00%     77.76% # Type of FU issued
system.cpu0.iq.FU_type_0::SimdFloatAlu              0      0.00%     77.76% # Type of FU issued
system.cpu0.iq.FU_type_0::SimdFloatCmp              0      0.00%     77.76% # Type of FU issued
system.cpu0.iq.FU_type_0::SimdFloatCvt              0      0.00%     77.76% # Type of FU issued
system.cpu0.iq.FU_type_0::SimdFloatDiv              0      0.00%     77.76% # Type of FU issued
system.cpu0.iq.FU_type_0::SimdFloatMisc             0      0.00%     77.76% # Type of FU issued
system.cpu0.iq.FU_type_0::SimdFloatMult             0      0.00%     77.76% # Type of FU issued
system.cpu0.iq.FU_type_0::SimdFloatMultAcc            0      0.00%     77.76% # Type of FU issued
system.cpu0.iq.FU_type_0::SimdFloatSqrt             0      0.00%     77.76% # Type of FU issued
system.cpu0.iq.FU_type_0::MemRead            10247544     12.27%     90.03% # Type of FU issued
system.cpu0.iq.FU_type_0::MemWrite            7642838      9.15%     99.18% # Type of FU issued
system.cpu0.iq.FU_type_0::FloatMemRead         403124      0.48%     99.66% # Type of FU issued
system.cpu0.iq.FU_type_0::FloatMemWrite        282944      0.34%    100.00% # Type of FU issued
system.cpu0.iq.FU_type_0::IprAccess                 0      0.00%    100.00% # Type of FU issued
system.cpu0.iq.FU_type_0::InstPrefetch              0      0.00%    100.00% # Type of FU issued
system.cpu0.iq.FU_type_0::total              83519617                       # Type of FU issued
system.cpu0.iq.rate                          2.735237                       # Inst issue rate
system.cpu0.iq.fu_busy_cnt                    1115323                       # FU busy when requested
system.cpu0.iq.fu_busy_rate                  0.013354                       # FU busy rate (busy events/executed inst)
system.cpu0.iq.int_inst_queue_reads         195139878                       # Number of integer instruction queue reads
system.cpu0.iq.int_inst_queue_writes        119799608                       # Number of integer instruction queue writes
system.cpu0.iq.int_inst_queue_wakeup_accesses     77967325                       # Number of integer instruction queue wakeup accesses
system.cpu0.iq.fp_inst_queue_reads            4011746                       # Number of floating instruction queue reads
system.cpu0.iq.fp_inst_queue_writes           3118028                       # Number of floating instruction queue writes
system.cpu0.iq.fp_inst_queue_wakeup_accesses      1820004                       # Number of floating instruction queue wakeup accesses
system.cpu0.iq.vec_inst_queue_reads                 0                       # Number of vector instruction queue reads
system.cpu0.iq.vec_inst_queue_writes                0                       # Number of vector instruction queue writes
system.cpu0.iq.vec_inst_queue_wakeup_accesses            0                       # Number of vector instruction queue wakeup accesses
system.cpu0.iq.int_alu_accesses              82091068                       # Number of integer alu accesses
system.cpu0.iq.fp_alu_accesses                2024275                       # Number of floating point alu accesses
system.cpu0.iq.vec_alu_accesses                     0                       # Number of vector alu accesses
system.cpu0.iew.lsq.thread0.forwLoads         1298211                       # Number of loads that had data forwarded from stores
system.cpu0.iew.lsq.thread0.invAddrLoads            0                       # Number of loads ignored due to an invalid address
system.cpu0.iew.lsq.thread0.squashedLoads      4230387                       # Number of loads squashed
system.cpu0.iew.lsq.thread0.ignoredResponses        10672                       # Number of memory responses ignored because the instruction is squashed
system.cpu0.iew.lsq.thread0.memOrderViolation         2795                       # Number of memory ordering violations
system.cpu0.iew.lsq.thread0.squashedStores      2596077                       # Number of stores squashed
system.cpu0.iew.lsq.thread0.invAddrSwpfs            0                       # Number of software prefetches ignored due to an invalid address
system.cpu0.iew.lsq.thread0.blockedLoads            0                       # Number of blocked loads due to partial load-store forwarding
system.cpu0.iew.lsq.thread0.rescheduledLoads          101                       # Number of loads that were rescheduled
system.cpu0.iew.lsq.thread0.cacheBlocked            0                       # Number of times an access to memory failed due to the cache being blocked
system.cpu0.iew.iewIdleCycles                       0                       # Number of cycles IEW is idle
system.cpu0.iew.iewSquashCycles               1090164                       # Number of cycles IEW is squashing
system.cpu0.iew.iewBlockCycles                3313372                       # Number of cycles IEW is blocking
system.cpu0.iew.iewUnblockCycles                 3816                       # Number of cycles IEW is unblocking
system.cpu0.iew.iewDispatchedInsts           93707667                       # Number of instructions dispatched to IQ
system.cpu0.iew.iewDispSquashedInsts            19711                       # Number of squashed instructions skipped by dispatch
system.cpu0.iew.iewDispLoadInsts             12030048                       # Number of dispatched load instructions
system.cpu0.iew.iewDispStoreInsts             9003888                       # Number of dispatched store instructions
system.cpu0.iew.iewDispNonSpecInsts             23961                       # Number of dispatched non-speculative instructions
system.cpu0.iew.iewIQFullEvents                    92                       # Number of times the IQ has become full, causing a stall
system.cpu0.iew.iewLSQFullEvents                 3618                       # Number of times the LSQ has become full, causing a stall
system.cpu0.iew.memOrderViolationEvents          2795                       # Number of memory order violations
system.cpu0.iew.predictedTakenIncorrect        299701                       # Number of branches that were predicted taken incorrectly
system.cpu0.iew.predictedNotTakenIncorrect      1136039                       # Number of branches that were predicted not taken incorrectly
system.cpu0.iew.branchMispredicts             1435740                       # Number of branch mispredicts detected at execute
system.cpu0.iew.iewExecutedInsts             80940968                       # Number of executed instructions
system.cpu0.iew.iewExecLoadInsts             10096606                       # Number of load instructions executed
system.cpu0.iew.iewExecSquashedInsts          2578655                       # Number of squashed instructions skipped in execute
system.cpu0.iew.exec_swp                            0                       # number of swp insts executed
system.cpu0.iew.exec_nop                            0                       # number of nop insts executed
system.cpu0.iew.exec_refs                    17678212                       # number of memory reference insts executed
system.cpu0.iew.exec_branches                 8709567                       # Number of branches executed
system.cpu0.iew.exec_stores                   7581606                       # Number of stores executed
system.cpu0.iew.exec_rate                    2.650787                       # Inst execution rate
system.cpu0.iew.wb_sent                      80396709                       # cumulative count of insts sent to commit
system.cpu0.iew.wb_count                     79787329                       # cumulative count of insts written-back
system.cpu0.iew.wb_producers                 55683697                       # num instructions producing a value
system.cpu0.iew.wb_consumers                 87275782                       # num instructions consuming a value
system.cpu0.iew.wb_rate                      2.613006                       # insts written-back per cycle
system.cpu0.iew.wb_fanout                    0.638020                       # average fanout of values written-back
system.cpu0.commit.commitSquashedInsts       29209115                       # The number of squashed insts skipped by commit
system.cpu0.commit.commitNonSpecStalls             24                       # The number of times commit has been forced to stall to communicate backwards
system.cpu0.commit.branchMispredicts          1089468                       # The number of times a branch was mispredicted
system.cpu0.commit.committed_per_cycle::samples     26133986                       # Number of insts commited each cycle
system.cpu0.commit.committed_per_cycle::mean     2.468005                       # Number of insts commited each cycle
system.cpu0.commit.committed_per_cycle::stdev     2.740272                       # Number of insts commited each cycle
system.cpu0.commit.committed_per_cycle::underflows            0      0.00%      0.00% # Number of insts commited each cycle
system.cpu0.commit.committed_per_cycle::0      9257061     35.42%     35.42% # Number of insts commited each cycle
system.cpu0.commit.committed_per_cycle::1      3778280     14.46%     49.88% # Number of insts commited each cycle
system.cpu0.commit.committed_per_cycle::2      2686888     10.28%     60.16% # Number of insts commited each cycle
system.cpu0.commit.committed_per_cycle::3      3596150     13.76%     73.92% # Number of insts commited each cycle
system.cpu0.commit.committed_per_cycle::4      1118702      4.28%     78.20% # Number of insts commited each cycle
system.cpu0.commit.committed_per_cycle::5      1134248      4.34%     82.54% # Number of insts commited each cycle
system.cpu0.commit.committed_per_cycle::6       802025      3.07%     85.61% # Number of insts commited each cycle
system.cpu0.commit.committed_per_cycle::7       484939      1.86%     87.47% # Number of insts commited each cycle
system.cpu0.commit.committed_per_cycle::8      3275693     12.53%    100.00% # Number of insts commited each cycle
system.cpu0.commit.committed_per_cycle::overflows            0      0.00%    100.00% # Number of insts commited each cycle
system.cpu0.commit.committed_per_cycle::min_value            0                       # Number of insts commited each cycle
system.cpu0.commit.committed_per_cycle::max_value            8                       # Number of insts commited each cycle
system.cpu0.commit.committed_per_cycle::total     26133986                       # Number of insts commited each cycle
system.cpu0.commit.committedInsts            34078775                       # Number of instructions committed
system.cpu0.commit.committedOps              64498821                       # Number of ops (including micro ops) committed
system.cpu0.commit.swp_count                        0                       # Number of s/w prefetches committed
system.cpu0.commit.refs                      14207472                       # Number of memory references committed
system.cpu0.commit.loads                      7799662                       # Number of loads committed
system.cpu0.commit.membars                          0                       # Number of memory barriers committed
system.cpu0.commit.branches                   7436265                       # Number of branches committed
system.cpu0.commit.vec_insts                        0                       # Number of committed Vector instructions.
system.cpu0.commit.fp_insts                   1336886                       # Number of committed floating point instructions.
system.cpu0.commit.int_insts                 63494582                       # Number of committed integer instructions.
system.cpu0.commit.function_calls              474822                       # Number of function calls committed.
system.cpu0.commit.op_class_0::No_OpClass       266245      0.41%      0.41% # Class of committed instruction
system.cpu0.commit.op_class_0::IntAlu        48896529     75.81%     76.22% # Class of committed instruction
system.cpu0.commit.op_class_0::IntMult          40891      0.06%     76.29% # Class of committed instruction
system.cpu0.commit.op_class_0::IntDiv           77812      0.12%     76.41% # Class of committed instruction
system.cpu0.commit.op_class_0::FloatAdd       1009872      1.57%     77.97% # Class of committed instruction
system.cpu0.commit.op_class_0::FloatCmp             0      0.00%     77.97% # Class of committed instruction
system.cpu0.commit.op_class_0::FloatCvt             0      0.00%     77.97% # Class of committed instruction
system.cpu0.commit.op_class_0::FloatMult            0      0.00%     77.97% # Class of committed instruction
system.cpu0.commit.op_class_0::FloatMultAcc            0      0.00%     77.97% # Class of committed instruction
system.cpu0.commit.op_class_0::FloatDiv             0      0.00%     77.97% # Class of committed instruction
system.cpu0.commit.op_class_0::FloatMisc            0      0.00%     77.97% # Class of committed instruction
system.cpu0.commit.op_class_0::FloatSqrt            0      0.00%     77.97% # Class of committed instruction
system.cpu0.commit.op_class_0::SimdAdd              0      0.00%     77.97% # Class of committed instruction
system.cpu0.commit.op_class_0::SimdAddAcc            0      0.00%     77.97% # Class of committed instruction
system.cpu0.commit.op_class_0::SimdAlu              0      0.00%     77.97% # Class of committed instruction
system.cpu0.commit.op_class_0::SimdCmp              0      0.00%     77.97% # Class of committed instruction
system.cpu0.commit.op_class_0::SimdCvt              0      0.00%     77.97% # Class of committed instruction
system.cpu0.commit.op_class_0::SimdMisc             0      0.00%     77.97% # Class of committed instruction
system.cpu0.commit.op_class_0::SimdMult             0      0.00%     77.97% # Class of committed instruction
system.cpu0.commit.op_class_0::SimdMultAcc            0      0.00%     77.97% # Class of committed instruction
system.cpu0.commit.op_class_0::SimdShift            0      0.00%     77.97% # Class of committed instruction
system.cpu0.commit.op_class_0::SimdShiftAcc            0      0.00%     77.97% # Class of committed instruction
system.cpu0.commit.op_class_0::SimdSqrt             0      0.00%     77.97% # Class of committed instruction
system.cpu0.commit.op_class_0::SimdFloatAdd            0      0.00%     77.97% # Class of committed instruction
system.cpu0.commit.op_class_0::SimdFloatAlu            0      0.00%     77.97% # Class of committed instruction
system.cpu0.commit.op_class_0::SimdFloatCmp            0      0.00%     77.97% # Class of committed instruction
system.cpu0.commit.op_class_0::SimdFloatCvt            0      0.00%     77.97% # Class of committed instruction
system.cpu0.commit.op_class_0::SimdFloatDiv            0      0.00%     77.97% # Class of committed instruction
system.cpu0.commit.op_class_0::SimdFloatMisc            0      0.00%     77.97% # Class of committed instruction
system.cpu0.commit.op_class_0::SimdFloatMult            0      0.00%     77.97% # Class of committed instruction
system.cpu0.commit.op_class_0::SimdFloatMultAcc            0      0.00%     77.97% # Class of committed instruction
system.cpu0.commit.op_class_0::SimdFloatSqrt            0      0.00%     77.97% # Class of committed instruction
system.cpu0.commit.op_class_0::MemRead        7517134     11.65%     89.63% # Class of committed instruction
system.cpu0.commit.op_class_0::MemWrite       6407810      9.93%     99.56% # Class of committed instruction
system.cpu0.commit.op_class_0::FloatMemRead       282528      0.44%    100.00% # Class of committed instruction
system.cpu0.commit.op_class_0::FloatMemWrite            0      0.00%    100.00% # Class of committed instruction
system.cpu0.commit.op_class_0::IprAccess            0      0.00%    100.00% # Class of committed instruction
system.cpu0.commit.op_class_0::InstPrefetch            0      0.00%    100.00% # Class of committed instruction
system.cpu0.commit.op_class_0::total         64498821                       # Class of committed instruction
system.cpu0.commit.bw_lim_events              3275693                       # number cycles where commit BW limit reached
system.cpu0.rob.rob_reads                   116566229                       # The number of ROB reads
system.cpu0.rob.rob_writes                  191903660                       # The number of ROB writes
system.cpu0.timesIdled                             39                       # Number of times that the entire CPU went into an idle state and unscheduled itself
system.cpu0.idleCycles                            294                       # Total number of cycles that the CPU has spent unscheduled due to idling
system.cpu0.committedInsts                   34078775                       # Number of Instructions Simulated
system.cpu0.committedOps                     64498821                       # Number of Ops (including micro ops) Simulated
system.cpu0.cpi                              0.896003                       # CPI: Cycles Per Instruction
system.cpu0.cpi_total                        0.896003                       # CPI: Total CPI of All Threads
system.cpu0.ipc                              1.116068                       # IPC: Instructions Per Cycle
system.cpu0.ipc_total                        1.116068                       # IPC: Total IPC of All Threads
system.cpu0.int_regfile_reads               117075424                       # number of integer regfile reads
system.cpu0.int_regfile_writes               62471395                       # number of integer regfile writes
system.cpu0.fp_regfile_reads                  2565206                       # number of floating regfile reads
system.cpu0.fp_regfile_writes                 1268601                       # number of floating regfile writes
system.cpu0.cc_regfile_reads                 40362571                       # number of cc regfile reads
system.cpu0.cc_regfile_writes                21232942                       # number of cc regfile writes
system.cpu0.misc_regfile_reads               35588868                       # number of misc regfile reads
system.cpu0.dcache.tags.pwrStateResidencyTicks::UNDEFINED  15267344125                       # Cumulative time (in ticks) in various power states
system.cpu0.dcache.tags.replacements             5190                       # number of replacements
system.cpu0.dcache.tags.tagsinuse                1024                       # Cycle average of tags in use
system.cpu0.dcache.tags.total_refs            1874746                       # Total number of references to valid blocks.
system.cpu0.dcache.tags.sampled_refs             5190                       # Sample count of references to valid blocks.
system.cpu0.dcache.tags.avg_refs           361.222736                       # Average number of references to valid blocks.
system.cpu0.dcache.tags.warmup_cycle                0                       # Cycle when the warmup percentage was hit.
system.cpu0.dcache.tags.occ_blocks::cpu0.data         1024                       # Average occupied blocks per requestor
system.cpu0.dcache.tags.occ_percent::cpu0.data            1                       # Average percentage of cache occupancy
system.cpu0.dcache.tags.occ_percent::total            1                       # Average percentage of cache occupancy
system.cpu0.dcache.tags.occ_task_id_blocks::1024         1024                       # Occupied blocks per task id
system.cpu0.dcache.tags.age_task_id_blocks_1024::0            2                       # Occupied blocks per task id
system.cpu0.dcache.tags.age_task_id_blocks_1024::1           26                       # Occupied blocks per task id
system.cpu0.dcache.tags.age_task_id_blocks_1024::2          278                       # Occupied blocks per task id
system.cpu0.dcache.tags.age_task_id_blocks_1024::3          459                       # Occupied blocks per task id
system.cpu0.dcache.tags.age_task_id_blocks_1024::4          259                       # Occupied blocks per task id
system.cpu0.dcache.tags.occ_task_id_percent::1024            1                       # Percentage of cache occupancy per task id
system.cpu0.dcache.tags.tag_accesses         60317650                       # Number of tag accesses
system.cpu0.dcache.tags.data_accesses        60317650                       # Number of data accesses
system.cpu0.dcache.pwrStateResidencyTicks::UNDEFINED  15267344125                       # Cumulative time (in ticks) in various power states
system.cpu0.dcache.ReadReq_hits::cpu0.data      8662922                       # number of ReadReq hits
system.cpu0.dcache.ReadReq_hits::total        8662922                       # number of ReadReq hits
system.cpu0.dcache.WriteReq_hits::cpu0.data      6407617                       # number of WriteReq hits
system.cpu0.dcache.WriteReq_hits::total       6407617                       # number of WriteReq hits
system.cpu0.dcache.demand_hits::cpu0.data     15070539                       # number of demand (read+write) hits
system.cpu0.dcache.demand_hits::total        15070539                       # number of demand (read+write) hits
system.cpu0.dcache.overall_hits::cpu0.data     15070539                       # number of overall hits
system.cpu0.dcache.overall_hits::total       15070539                       # number of overall hits
system.cpu0.dcache.ReadReq_misses::cpu0.data         4140                       # number of ReadReq misses
system.cpu0.dcache.ReadReq_misses::total         4140                       # number of ReadReq misses
system.cpu0.dcache.WriteReq_misses::cpu0.data         3436                       # number of WriteReq misses
system.cpu0.dcache.WriteReq_misses::total         3436                       # number of WriteReq misses
system.cpu0.dcache.demand_misses::cpu0.data         7576                       # number of demand (read+write) misses
system.cpu0.dcache.demand_misses::total          7576                       # number of demand (read+write) misses
system.cpu0.dcache.overall_misses::cpu0.data         7576                       # number of overall misses
system.cpu0.dcache.overall_misses::total         7576                       # number of overall misses
system.cpu0.dcache.ReadReq_miss_latency::cpu0.data     56742000                       # number of ReadReq miss cycles
system.cpu0.dcache.ReadReq_miss_latency::total     56742000                       # number of ReadReq miss cycles
system.cpu0.dcache.WriteReq_miss_latency::cpu0.data    525495000                       # number of WriteReq miss cycles
system.cpu0.dcache.WriteReq_miss_latency::total    525495000                       # number of WriteReq miss cycles
system.cpu0.dcache.demand_miss_latency::cpu0.data    582237000                       # number of demand (read+write) miss cycles
system.cpu0.dcache.demand_miss_latency::total    582237000                       # number of demand (read+write) miss cycles
system.cpu0.dcache.overall_miss_latency::cpu0.data    582237000                       # number of overall miss cycles
system.cpu0.dcache.overall_miss_latency::total    582237000                       # number of overall miss cycles
system.cpu0.dcache.ReadReq_accesses::cpu0.data      8667062                       # number of ReadReq accesses(hits+misses)
system.cpu0.dcache.ReadReq_accesses::total      8667062                       # number of ReadReq accesses(hits+misses)
system.cpu0.dcache.WriteReq_accesses::cpu0.data      6411053                       # number of WriteReq accesses(hits+misses)
system.cpu0.dcache.WriteReq_accesses::total      6411053                       # number of WriteReq accesses(hits+misses)
system.cpu0.dcache.demand_accesses::cpu0.data     15078115                       # number of demand (read+write) accesses
system.cpu0.dcache.demand_accesses::total     15078115                       # number of demand (read+write) accesses
system.cpu0.dcache.overall_accesses::cpu0.data     15078115                       # number of overall (read+write) accesses
system.cpu0.dcache.overall_accesses::total     15078115                       # number of overall (read+write) accesses
system.cpu0.dcache.ReadReq_miss_rate::cpu0.data     0.000478                       # miss rate for ReadReq accesses
system.cpu0.dcache.ReadReq_miss_rate::total     0.000478                       # miss rate for ReadReq accesses
system.cpu0.dcache.WriteReq_miss_rate::cpu0.data     0.000536                       # miss rate for WriteReq accesses
system.cpu0.dcache.WriteReq_miss_rate::total     0.000536                       # miss rate for WriteReq accesses
system.cpu0.dcache.demand_miss_rate::cpu0.data     0.000502                       # miss rate for demand accesses
system.cpu0.dcache.demand_miss_rate::total     0.000502                       # miss rate for demand accesses
system.cpu0.dcache.overall_miss_rate::cpu0.data     0.000502                       # miss rate for overall accesses
system.cpu0.dcache.overall_miss_rate::total     0.000502                       # miss rate for overall accesses
system.cpu0.dcache.ReadReq_avg_miss_latency::cpu0.data 13705.797101                       # average ReadReq miss latency
system.cpu0.dcache.ReadReq_avg_miss_latency::total 13705.797101                       # average ReadReq miss latency
system.cpu0.dcache.WriteReq_avg_miss_latency::cpu0.data 152938.009313                       # average WriteReq miss latency
system.cpu0.dcache.WriteReq_avg_miss_latency::total 152938.009313                       # average WriteReq miss latency
system.cpu0.dcache.demand_avg_miss_latency::cpu0.data 76852.824710                       # average overall miss latency
system.cpu0.dcache.demand_avg_miss_latency::total 76852.824710                       # average overall miss latency
system.cpu0.dcache.overall_avg_miss_latency::cpu0.data 76852.824710                       # average overall miss latency
system.cpu0.dcache.overall_avg_miss_latency::total 76852.824710                       # average overall miss latency
system.cpu0.dcache.blocked_cycles::no_mshrs            0                       # number of cycles access was blocked
system.cpu0.dcache.blocked_cycles::no_targets            0                       # number of cycles access was blocked
system.cpu0.dcache.blocked::no_mshrs                0                       # number of cycles access was blocked
system.cpu0.dcache.blocked::no_targets              0                       # number of cycles access was blocked
system.cpu0.dcache.avg_blocked_cycles::no_mshrs          nan                       # average number of cycles each access was blocked
system.cpu0.dcache.avg_blocked_cycles::no_targets          nan                       # average number of cycles each access was blocked
system.cpu0.dcache.writebacks::writebacks         4701                       # number of writebacks
system.cpu0.dcache.writebacks::total             4701                       # number of writebacks
system.cpu0.dcache.ReadReq_mshr_hits::cpu0.data         2371                       # number of ReadReq MSHR hits
system.cpu0.dcache.ReadReq_mshr_hits::total         2371                       # number of ReadReq MSHR hits
system.cpu0.dcache.WriteReq_mshr_hits::cpu0.data           12                       # number of WriteReq MSHR hits
system.cpu0.dcache.WriteReq_mshr_hits::total           12                       # number of WriteReq MSHR hits
system.cpu0.dcache.demand_mshr_hits::cpu0.data         2383                       # number of demand (read+write) MSHR hits
system.cpu0.dcache.demand_mshr_hits::total         2383                       # number of demand (read+write) MSHR hits
system.cpu0.dcache.overall_mshr_hits::cpu0.data         2383                       # number of overall MSHR hits
system.cpu0.dcache.overall_mshr_hits::total         2383                       # number of overall MSHR hits
system.cpu0.dcache.ReadReq_mshr_misses::cpu0.data         1769                       # number of ReadReq MSHR misses
system.cpu0.dcache.ReadReq_mshr_misses::total         1769                       # number of ReadReq MSHR misses
system.cpu0.dcache.WriteReq_mshr_misses::cpu0.data         3424                       # number of WriteReq MSHR misses
system.cpu0.dcache.WriteReq_mshr_misses::total         3424                       # number of WriteReq MSHR misses
system.cpu0.dcache.demand_mshr_misses::cpu0.data         5193                       # number of demand (read+write) MSHR misses
system.cpu0.dcache.demand_mshr_misses::total         5193                       # number of demand (read+write) MSHR misses
system.cpu0.dcache.overall_mshr_misses::cpu0.data         5193                       # number of overall MSHR misses
system.cpu0.dcache.overall_mshr_misses::total         5193                       # number of overall MSHR misses
system.cpu0.dcache.ReadReq_mshr_miss_latency::cpu0.data     24416500                       # number of ReadReq MSHR miss cycles
system.cpu0.dcache.ReadReq_mshr_miss_latency::total     24416500                       # number of ReadReq MSHR miss cycles
[...]
system.l2.overall_accesses::cpu0.data            5190                       # number of overall (read+write) accesses
system.l2.overall_accesses::total                6767                       # number of overall (read+write) accesses
system.l2.ReadExReq_miss_rate::cpu0.data     0.996200                       # miss rate for ReadExReq accesses
system.l2.ReadExReq_miss_rate::total         0.996200                       # miss rate for ReadExReq accesses
system.l2.ReadCleanReq_miss_rate::cpu0.inst     0.001902                       # miss rate for ReadCleanReq accesses
system.l2.ReadCleanReq_miss_rate::total      0.001902                       # miss rate for ReadCleanReq accesses
system.l2.ReadSharedReq_miss_rate::cpu0.data     0.010741                       # miss rate for ReadSharedReq accesses
system.l2.ReadSharedReq_miss_rate::total     0.010741                       # miss rate for ReadSharedReq accesses
system.l2.demand_miss_rate::cpu0.inst        0.001902                       # miss rate for demand accesses
system.l2.demand_miss_rate::cpu0.data        0.660308                       # miss rate for demand accesses
system.l2.demand_miss_rate::total            0.506872                       # miss rate for demand accesses
system.l2.overall_miss_rate::cpu0.inst       0.001902                       # miss rate for overall accesses
system.l2.overall_miss_rate::cpu0.data       0.660308                       # miss rate for overall accesses
system.l2.overall_miss_rate::total           0.506872                       # miss rate for overall accesses
system.l2.ReadExReq_avg_miss_latency::cpu0.data 151158.450704                       # average ReadExReq miss latency
system.l2.ReadExReq_avg_miss_latency::total 151158.450704                       # average ReadExReq miss latency
system.l2.ReadCleanReq_avg_miss_latency::cpu0.inst        89500                       # average ReadCleanReq miss latency
system.l2.ReadCleanReq_avg_miss_latency::total        89500                       # average ReadCleanReq miss latency
system.l2.ReadSharedReq_avg_miss_latency::cpu0.data       172500                       # average ReadSharedReq miss latency
system.l2.ReadSharedReq_avg_miss_latency::total       172500                       # average ReadSharedReq miss latency
system.l2.demand_avg_miss_latency::cpu0.inst        89500                       # average overall miss latency
system.l2.demand_avg_miss_latency::cpu0.data 151276.772687                       # average overall miss latency
system.l2.demand_avg_miss_latency::total 151222.740525                       # average overall miss latency
system.l2.overall_avg_miss_latency::cpu0.inst        89500                       # average overall miss latency
system.l2.overall_avg_miss_latency::cpu0.data 151276.772687                       # average overall miss latency
system.l2.overall_avg_miss_latency::total 151222.740525                       # average overall miss latency
system.l2.blocked_cycles::no_mshrs                  0                       # number of cycles access was blocked
system.l2.blocked_cycles::no_targets                0                       # number of cycles access was blocked
system.l2.blocked::no_mshrs                         0                       # number of cycles access was blocked
system.l2.blocked::no_targets                       0                       # number of cycles access was blocked
system.l2.avg_blocked_cycles::no_mshrs            nan                       # average number of cycles each access was blocked
system.l2.avg_blocked_cycles::no_targets          nan                       # average number of cycles each access was blocked
system.l2.ReadExReq_mshr_misses::cpu0.data         3408                       # number of ReadExReq MSHR misses
system.l2.ReadExReq_mshr_misses::total           3408                       # number of ReadExReq MSHR misses
system.l2.ReadCleanReq_mshr_misses::cpu0.inst            3                       # number of ReadCleanReq MSHR misses
system.l2.ReadCleanReq_mshr_misses::total            3                       # number of ReadCleanReq MSHR misses
system.l2.ReadSharedReq_mshr_misses::cpu0.data           19                       # number of ReadSharedReq MSHR misses
system.l2.ReadSharedReq_mshr_misses::total           19                       # number of ReadSharedReq MSHR misses
system.l2.demand_mshr_misses::cpu0.inst             3                       # number of demand (read+write) MSHR misses
system.l2.demand_mshr_misses::cpu0.data          3427                       # number of demand (read+write) MSHR misses
system.l2.demand_mshr_misses::total              3430                       # number of demand (read+write) MSHR misses
system.l2.overall_mshr_misses::cpu0.inst            3                       # number of overall MSHR misses
system.l2.overall_mshr_misses::cpu0.data         3427                       # number of overall MSHR misses
system.l2.overall_mshr_misses::total             3430                       # number of overall MSHR misses
system.l2.ReadExReq_mshr_miss_latency::cpu0.data    481068000                       # number of ReadExReq MSHR miss cycles
system.l2.ReadExReq_mshr_miss_latency::total    481068000                       # number of ReadExReq MSHR miss cycles
system.l2.ReadCleanReq_mshr_miss_latency::cpu0.inst       238500                       # number of ReadCleanReq MSHR miss cycles
system.l2.ReadCleanReq_mshr_miss_latency::total       238500                       # number of ReadCleanReq MSHR miss cycles
system.l2.ReadSharedReq_mshr_miss_latency::cpu0.data      3087500                       # number of ReadSharedReq MSHR miss cycles
system.l2.ReadSharedReq_mshr_miss_latency::total      3087500                       # number of ReadSharedReq MSHR miss cycles
system.l2.demand_mshr_miss_latency::cpu0.inst       238500                       # number of demand (read+write) MSHR miss cycles
system.l2.demand_mshr_miss_latency::cpu0.data    484155500                       # number of demand (read+write) MSHR miss cycles
system.l2.demand_mshr_miss_latency::total    484394000                       # number of demand (read+write) MSHR miss cycles
system.l2.overall_mshr_miss_latency::cpu0.inst       238500                       # number of overall MSHR miss cycles
system.l2.overall_mshr_miss_latency::cpu0.data    484155500                       # number of overall MSHR miss cycles
system.l2.overall_mshr_miss_latency::total    484394000                       # number of overall MSHR miss cycles
system.l2.ReadExReq_mshr_miss_rate::cpu0.data     0.996200                       # mshr miss rate for ReadExReq accesses
system.l2.ReadExReq_mshr_miss_rate::total     0.996200                       # mshr miss rate for ReadExReq accesses
system.l2.ReadCleanReq_mshr_miss_rate::cpu0.inst     0.001902                       # mshr miss rate for ReadCleanReq accesses
system.l2.ReadCleanReq_mshr_miss_rate::total     0.001902                       # mshr miss rate for ReadCleanReq accesses
system.l2.ReadSharedReq_mshr_miss_rate::cpu0.data     0.010741                       # mshr miss rate for ReadSharedReq accesses
system.l2.ReadSharedReq_mshr_miss_rate::total     0.010741                       # mshr miss rate for ReadSharedReq accesses
system.l2.demand_mshr_miss_rate::cpu0.inst     0.001902                       # mshr miss rate for demand accesses
system.l2.demand_mshr_miss_rate::cpu0.data     0.660308                       # mshr miss rate for demand accesses
system.l2.demand_mshr_miss_rate::total       0.506872                       # mshr miss rate for demand accesses
system.l2.overall_mshr_miss_rate::cpu0.inst     0.001902                       # mshr miss rate for overall accesses
system.l2.overall_mshr_miss_rate::cpu0.data     0.660308                       # mshr miss rate for overall accesses
system.l2.overall_mshr_miss_rate::total      0.506872                       # mshr miss rate for overall accesses
system.l2.ReadExReq_avg_mshr_miss_latency::cpu0.data 141158.450704                       # average ReadExReq mshr miss latency
system.l2.ReadExReq_avg_mshr_miss_latency::total 141158.450704                       # average ReadExReq mshr miss latency
system.l2.ReadCleanReq_avg_mshr_miss_latency::cpu0.inst        79500                       # average ReadCleanReq mshr miss latency
system.l2.ReadCleanReq_avg_mshr_miss_latency::total        79500                       # average ReadCleanReq mshr miss latency
system.l2.ReadSharedReq_avg_mshr_miss_latency::cpu0.data       162500                       # average ReadSharedReq mshr miss latency
system.l2.ReadSharedReq_avg_mshr_miss_latency::total       162500                       # average ReadSharedReq mshr miss latency
system.l2.demand_avg_mshr_miss_latency::cpu0.inst        79500                       # average overall mshr miss latency
system.l2.demand_avg_mshr_miss_latency::cpu0.data 141276.772687                       # average overall mshr miss latency
system.l2.demand_avg_mshr_miss_latency::total 141222.740525                       # average overall mshr miss latency
system.l2.overall_avg_mshr_miss_latency::cpu0.inst        79500                       # average overall mshr miss latency
system.l2.overall_avg_mshr_miss_latency::cpu0.data 141276.772687                       # average overall mshr miss latency
system.l2.overall_avg_mshr_miss_latency::total 141222.740525                       # average overall mshr miss latency
system.membus.snoop_filter.tot_requests          3430                       # Total number of requests made to the snoop filter.
system.membus.snoop_filter.hit_single_requests            0                       # Number of requests hitting in the snoop filter with a single holder of the requested data.
system.membus.snoop_filter.hit_multi_requests            0                       # Number of requests hitting in the snoop filter with multiple (>1) holders of the requested data.
system.membus.snoop_filter.tot_snoops               0                       # Total number of snoops made to the snoop filter.
system.membus.snoop_filter.hit_single_snoops            0                       # Number of snoops hitting in the snoop filter with a single holder of the requested data.
system.membus.snoop_filter.hit_multi_snoops            0                       # Number of snoops hitting in the snoop filter with multiple (>1) holders of the requested data.
system.membus.pwrStateResidencyTicks::UNDEFINED  15267344125                       # Cumulative time (in ticks) in various power states
system.membus.trans_dist::ReadResp                 22                       # Transaction distribution
system.membus.trans_dist::ReadExReq              3408                       # Transaction distribution
system.membus.trans_dist::ReadExResp             3408                       # Transaction distribution
system.membus.trans_dist::ReadSharedReq            22                       # Transaction distribution
system.membus.pkt_count_system.l2.mem_side::system.mem_ctrls.port         6860                       # Packet count per connected master and slave (bytes)
system.membus.pkt_count_system.l2.mem_side::total         6860                       # Packet count per connected master and slave (bytes)
system.membus.pkt_count::total                   6860                       # Packet count per connected master and slave (bytes)
system.membus.pkt_size_system.l2.mem_side::system.mem_ctrls.port       219520                       # Cumulative packet size per connected master and slave (bytes)
system.membus.pkt_size_system.l2.mem_side::total       219520                       # Cumulative packet size per connected master and slave (bytes)
system.membus.pkt_size::total                  219520                       # Cumulative packet size per connected master and slave (bytes)
system.membus.snoops                                0                       # Total snoops (count)
system.membus.snoopTraffic                          0                       # Total snoop traffic (bytes)
system.membus.snoop_fanout::samples              3430                       # Request fanout histogram
system.membus.snoop_fanout::mean                    0                       # Request fanout histogram
system.membus.snoop_fanout::stdev                   0                       # Request fanout histogram
system.membus.snoop_fanout::underflows              0      0.00%      0.00% # Request fanout histogram
system.membus.snoop_fanout::0                    3430    100.00%    100.00% # Request fanout histogram
system.membus.snoop_fanout::1                       0      0.00%    100.00% # Request fanout histogram
system.membus.snoop_fanout::overflows               0      0.00%    100.00% # Request fanout histogram
system.membus.snoop_fanout::min_value               0                       # Request fanout histogram
system.membus.snoop_fanout::max_value               0                       # Request fanout histogram
system.membus.snoop_fanout::total                3430                       # Request fanout histogram
system.membus.reqLayer8.occupancy             4260000                       # Layer occupancy (ticks)
system.membus.reqLayer8.utilization               0.0                       # Layer utilization (%)
system.membus.respLayer1.occupancy           18891500                       # Layer occupancy (ticks)
system.membus.respLayer1.utilization              0.1                       # Layer utilization (%)
system.tol2bus.snoop_filter.tot_requests        13541                       # Total number of requests made to the snoop filter.
system.tol2bus.snoop_filter.hit_single_requests         6772                       # Number of requests hitting in the snoop filter with a single holder of the requested data.
system.tol2bus.snoop_filter.hit_multi_requests           22                       # Number of requests hitting in the snoop filter with multiple (>1) holders of the requested data.
system.tol2bus.snoop_filter.tot_snoops              0                       # Total number of snoops made to the snoop filter.
system.tol2bus.snoop_filter.hit_single_snoops            0                       # Number of snoops hitting in the snoop filter with a single holder of the requested data.
system.tol2bus.snoop_filter.hit_multi_snoops            0                       # Number of snoops hitting in the snoop filter with multiple (>1) holders of the requested data.
system.tol2bus.pwrStateResidencyTicks::UNDEFINED  15267344125                       # Cumulative time (in ticks) in various power states
system.tol2bus.trans_dist::ReadResp              3349                       # Transaction distribution
system.tol2bus.trans_dist::WritebackDirty         4701                       # Transaction distribution
system.tol2bus.trans_dist::WritebackClean         1578                       # Transaction distribution
system.tol2bus.trans_dist::CleanEvict             489                       # Transaction distribution
system.tol2bus.trans_dist::UpgradeReq               3                       # Transaction distribution
system.tol2bus.trans_dist::UpgradeResp              3                       # Transaction distribution
system.tol2bus.trans_dist::ReadExReq             3421                       # Transaction distribution
system.tol2bus.trans_dist::ReadExResp            3421                       # Transaction distribution
system.tol2bus.trans_dist::ReadCleanReq          1580                       # Transaction distribution
system.tol2bus.trans_dist::ReadSharedReq         1769                       # Transaction distribution
system.tol2bus.pkt_count_system.cpu0.icache.mem_side::system.l2.cpu_side         4735                       # Packet count per connected master and slave (bytes)
system.tol2bus.pkt_count_system.cpu0.dcache.mem_side::system.l2.cpu_side        15576                       # Packet count per connected master and slave (bytes)
system.tol2bus.pkt_count::total                 20311                       # Packet count per connected master and slave (bytes)
system.tol2bus.pkt_size_system.cpu0.icache.mem_side::system.l2.cpu_side       201920                       # Cumulative packet size per connected master and slave (bytes)
system.tol2bus.pkt_size_system.cpu0.dcache.mem_side::system.l2.cpu_side       633024                       # Cumulative packet size per connected master and slave (bytes)
system.tol2bus.pkt_size::total                 834944                       # Cumulative packet size per connected master and slave (bytes)
system.tol2bus.snoops                               3                       # Total snoops (count)
system.tol2bus.snoopTraffic                       192                       # Total snoop traffic (bytes)
system.tol2bus.snoop_fanout::samples             6773                       # Request fanout histogram
system.tol2bus.snoop_fanout::mean            0.003839                       # Request fanout histogram
system.tol2bus.snoop_fanout::stdev           0.061843                       # Request fanout histogram
system.tol2bus.snoop_fanout::underflows             0      0.00%      0.00% # Request fanout histogram
system.tol2bus.snoop_fanout::0                   6747     99.62%     99.62% # Request fanout histogram
system.tol2bus.snoop_fanout::1                     26      0.38%    100.00% # Request fanout histogram
system.tol2bus.snoop_fanout::2                      0      0.00%    100.00% # Request fanout histogram
system.tol2bus.snoop_fanout::3                      0      0.00%    100.00% # Request fanout histogram
system.tol2bus.snoop_fanout::4                      0      0.00%    100.00% # Request fanout histogram
system.tol2bus.snoop_fanout::5                      0      0.00%    100.00% # Request fanout histogram
system.tol2bus.snoop_fanout::6                      0      0.00%    100.00% # Request fanout histogram
system.tol2bus.snoop_fanout::7                      0      0.00%    100.00% # Request fanout histogram
system.tol2bus.snoop_fanout::8                      0      0.00%    100.00% # Request fanout histogram
system.tol2bus.snoop_fanout::9                      0      0.00%    100.00% # Request fanout histogram
system.tol2bus.snoop_fanout::10                     0      0.00%    100.00% # Request fanout histogram
system.tol2bus.snoop_fanout::11                     0      0.00%    100.00% # Request fanout histogram
system.tol2bus.snoop_fanout::12                     0      0.00%    100.00% # Request fanout histogram
system.tol2bus.snoop_fanout::13                     0      0.00%    100.00% # Request fanout histogram
system.tol2bus.snoop_fanout::14                     0      0.00%    100.00% # Request fanout histogram
system.tol2bus.snoop_fanout::15                     0      0.00%    100.00% # Request fanout histogram
system.tol2bus.snoop_fanout::16                     0      0.00%    100.00% # Request fanout histogram
system.tol2bus.snoop_fanout::overflows              0      0.00%    100.00% # Request fanout histogram
system.tol2bus.snoop_fanout::min_value              0                       # Request fanout histogram
system.tol2bus.snoop_fanout::max_value              1                       # Request fanout histogram
system.tol2bus.snoop_fanout::total               6773                       # Request fanout histogram
system.tol2bus.reqLayer0.occupancy           13049500                       # Layer occupancy (ticks)
system.tol2bus.reqLayer0.utilization              0.1                       # Layer utilization (%)
system.tol2bus.respLayer0.occupancy           2370000                       # Layer occupancy (ticks)
system.tol2bus.respLayer0.utilization             0.0                       # Layer utilization (%)
system.tol2bus.respLayer1.occupancy           7786999                       # Layer occupancy (ticks)
system.tol2bus.respLayer1.utilization             0.1                       # Layer utilization (%)

---------- End Simulation Statistics   ----------
