
---------- Begin Simulation Statistics ----------
sim_seconds                                  0.001000                       # Number of seconds simulated
sim_ticks                                  1000000000                       # Number of ticks simulated
final_tick                                 1000000000                       # Number of ticks from beginning of simulation (restored from checkpoints and never reset)
sim_freq                                 1000000000000                       # Frequency of simulated ticks
host_inst_rate                                 162434                       # Simulator instruction rate (inst/s)
host_op_rate                                   278561                       # Simulator op (including micro ops) rate (op/s)
host_tick_rate                               93581115                       # Simulator tick rate (ticks/s)
host_mem_usage                                2272188                       # Number of bytes of host memory used
host_seconds                                    10.69                       # Real time elapsed on the host
sim_insts                                     1735750                       # Number of instructions simulated
sim_ops                                       2976676                       # Number of ops (including micro ops) simulated
system.voltage_domain.voltage                       1                       # Voltage in Volts
system.clk_domain.clock                          1000                       # Clock period in ticks
system.mem_ctrls.pwrStateResidencyTicks::UNDEFINED   1000000000                       # Cumulative time (in ticks) in various power states
system.mem_ctrls.bytes_read::cpu0.inst          48448                       # Number of bytes read from this memory
system.mem_ctrls.bytes_read::cpu0.data         467328                       # Number of bytes read from this memory
system.mem_ctrls.bytes_read::total             515776                       # Number of bytes read from this memory
system.mem_ctrls.bytes_inst_read::cpu0.inst        48448                       # Number of instructions bytes read from this memory
system.mem_ctrls.bytes_inst_read::total         48448                       # Number of instructions bytes read from this memory
system.mem_ctrls.num_reads::cpu0.inst             757                       # Number of read requests responded to by this memory
system.mem_ctrls.num_reads::cpu0.data            7302                       # Number of read requests responded to by this memory
system.mem_ctrls.num_reads::total                8059                       # Number of read requests responded to by this memory
system.mem_ctrls.bw_read::cpu0.inst          48448000                       # Total read bandwidth from this memory (bytes/s)
system.mem_ctrls.bw_read::cpu0.data         467328000                       # Total read bandwidth from this memory (bytes/s)
system.mem_ctrls.bw_read::total             515776000                       # Total read bandwidth from this memory (bytes/s)
system.mem_ctrls.bw_inst_read::cpu0.inst     48448000                       # Instruction read bandwidth from this memory (bytes/s)
system.mem_ctrls.bw_inst_read::total         48448000                       # Instruction read bandwidth from this memory (bytes/s)
system.mem_ctrls.bw_total::cpu0.inst         48448000                       # Total bandwidth to/from this memory (bytes/s)
system.mem_ctrls.bw_total::cpu0.data        467328000                       # Total bandwidth to/from this memory (bytes/s)
system.mem_ctrls.bw_total::total            515776000                       # Total bandwidth to/from this memory (bytes/s)
system.mem_ctrls.readReqs                        8059                       # Number of read requests accepted
system.mem_ctrls.writeReqs                          0                       # Number of write requests accepted
system.mem_ctrls.readBursts                      8059                       # Number of DRAM read bursts, including those serviced by the write queue
system.mem_ctrls.writeBursts                        0                       # Number of DRAM write bursts, including those merged in the write queue
system.mem_ctrls.bytesReadDRAM                 515776                       # Total number of bytes read from DRAM
system.mem_ctrls.bytesReadWrQ                       0                       # Total number of bytes read from write queue
system.mem_ctrls.bytesWritten                       0                       # Total number of bytes written to DRAM
system.mem_ctrls.bytesReadSys                  515776                       # Total read bytes from the system interface side
system.mem_ctrls.bytesWrittenSys                    0                       # Total written bytes from the system interface side
system.mem_ctrls.servicedByWrQ                      0                       # Number of DRAM read bursts serviced by the write queue
system.mem_ctrls.mergedWrBursts                     0                       # Number of DRAM write bursts merged with an existing one
system.mem_ctrls.neitherReadNorWriteReqs            0                       # Number of requests that are neither read nor write
system.mem_ctrls.perBankRdBursts::0               517                       # Per bank write bursts
system.mem_ctrls.perBankRdBursts::1               515                       # Per bank write bursts
system.mem_ctrls.perBankRdBursts::2               488                       # Per bank write bursts
system.mem_ctrls.perBankRdBursts::3               338                       # Per bank write bursts
system.mem_ctrls.perBankRdBursts::4               356                       # Per bank write bursts
system.mem_ctrls.perBankRdBursts::5               428                       # Per bank write bursts
system.mem_ctrls.perBankRdBursts::6               565                       # Per bank write bursts
system.mem_ctrls.perBankRdBursts::7               546                       # Per bank write bursts
system.mem_ctrls.perBankRdBursts::8               505                       # Per bank write bursts
system.mem_ctrls.perBankRdBursts::9               419                       # Per bank write bursts
system.mem_ctrls.perBankRdBursts::10              502                       # Per bank write bursts
system.mem_ctrls.perBankRdBursts::11              437                       # Per bank write bursts
system.mem_ctrls.perBankRdBursts::12              554                       # Per bank write bursts
system.mem_ctrls.perBankRdBursts::13              770                       # Per bank write bursts
system.mem_ctrls.perBankRdBursts::14              546                       # Per bank write bursts
system.mem_ctrls.perBankRdBursts::15              573                       # Per bank write bursts
system.mem_ctrls.perBankWrBursts::0                 0                       # Per bank write bursts
system.mem_ctrls.perBankWrBursts::1                 0                       # Per bank write bursts
system.mem_ctrls.perBankWrBursts::2                 0                       # Per bank write bursts
system.mem_ctrls.perBankWrBursts::3                 0                       # Per bank write bursts
system.mem_ctrls.perBankWrBursts::4                 0                       # Per bank write bursts
system.mem_ctrls.perBankWrBursts::5                 0                       # Per bank write bursts
system.mem_ctrls.perBankWrBursts::6                 0                       # Per bank write bursts
system.mem_ctrls.perBankWrBursts::7                 0                       # Per bank write bursts
system.mem_ctrls.perBankWrBursts::8                 0                       # Per bank write bursts
system.mem_ctrls.perBankWrBursts::9                 0                       # Per bank write bursts
system.mem_ctrls.perBankWrBursts::10                0                       # Per bank write bursts
system.mem_ctrls.perBankWrBursts::11                0                       # Per bank write bursts
system.mem_ctrls.perBankWrBursts::12                0                       # Per bank write bursts
system.mem_ctrls.perBankWrBursts::13                0                       # Per bank write bursts
system.mem_ctrls.perBankWrBursts::14                0                       # Per bank write bursts
system.mem_ctrls.perBankWrBursts::15                0                       # Per bank write bursts
system.mem_ctrls.numRdRetry                         0                       # Number of times read queue was full causing retry
system.mem_ctrls.numWrRetry                         0                       # Number of times write queue was full causing retry
system.mem_ctrls.totGap                     999670500                       # Total gap between requests
system.mem_ctrls.readPktSize::0                     0                       # Read request sizes (log2)
system.mem_ctrls.readPktSize::1                     0                       # Read request sizes (log2)
system.mem_ctrls.readPktSize::2                     0                       # Read request sizes (log2)
system.mem_ctrls.readPktSize::3                     0                       # Read request sizes (log2)
system.mem_ctrls.readPktSize::4                     0                       # Read request sizes (log2)
system.mem_ctrls.readPktSize::5                     0                       # Read request sizes (log2)
system.mem_ctrls.readPktSize::6                  8059                       # Read request sizes (log2)
system.mem_ctrls.writePktSize::0                    0                       # Write request sizes (log2)
system.mem_ctrls.writePktSize::1                    0                       # Write request sizes (log2)
system.mem_ctrls.writePktSize::2                    0                       # Write request sizes (log2)
system.mem_ctrls.writePktSize::3                    0                       # Write request sizes (log2)
system.mem_ctrls.writePktSize::4                    0                       # Write request sizes (log2)
system.mem_ctrls.writePktSize::5                    0                       # Write request sizes (log2)
system.mem_ctrls.writePktSize::6                    0                       # Write request sizes (log2)
system.mem_ctrls.rdQLenPdf::0                    6190                       # What read queue length does an incoming req see
system.mem_ctrls.rdQLenPdf::1                    1385                       # What read queue length does an incoming req see
system.mem_ctrls.rdQLenPdf::2                     377                       # What read queue length does an incoming req see
system.mem_ctrls.rdQLenPdf::3                      99                       # What read queue length does an incoming req see
system.mem_ctrls.rdQLenPdf::4                       7                       # What read queue length does an incoming req see
system.mem_ctrls.rdQLenPdf::5                       1                       # What read queue length does an incoming req see
system.mem_ctrls.rdQLenPdf::6                       0                       # What read queue length does an incoming req see
system.mem_ctrls.rdQLenPdf::7                       0                       # What read queue length does an incoming req see
system.mem_ctrls.rdQLenPdf::8                       0                       # What read queue length does an incoming req see
system.mem_ctrls.rdQLenPdf::9                       0                       # What read queue length does an incoming req see
system.mem_ctrls.rdQLenPdf::10                      0                       # What read queue length does an incoming req see
system.mem_ctrls.rdQLenPdf::11                      0                       # What read queue length does an incoming req see
system.mem_ctrls.rdQLenPdf::12                      0                       # What read queue length does an incoming req see
system.mem_ctrls.rdQLenPdf::13                      0                       # What read queue length does an incoming req see
system.mem_ctrls.rdQLenPdf::14                      0                       # What read queue length does an incoming req see
system.mem_ctrls.rdQLenPdf::15                      0                       # What read queue length does an incoming req see
system.mem_ctrls.rdQLenPdf::16                      0                       # What read queue length does an incoming req see
system.mem_ctrls.rdQLenPdf::17                      0                       # What read queue length does an incoming req see
system.mem_ctrls.rdQLenPdf::18                      0                       # What read queue length does an incoming req see
system.mem_ctrls.rdQLenPdf::19                      0                       # What read queue length does an incoming req see
system.mem_ctrls.rdQLenPdf::20                      0                       # What read queue length does an incoming req see
system.mem_ctrls.rdQLenPdf::21                      0                       # What read queue length does an incoming req see
system.mem_ctrls.rdQLenPdf::22                      0                       # What read queue length does an incoming req see
system.mem_ctrls.rdQLenPdf::23                      0                       # What read queue length does an incoming req see
system.mem_ctrls.rdQLenPdf::24                      0                       # What read queue length does an incoming req see
system.mem_ctrls.rdQLenPdf::25                      0                       # What read queue length does an incoming req see
system.mem_ctrls.rdQLenPdf::26                      0                       # What read queue length does an incoming req see
system.mem_ctrls.rdQLenPdf::27                      0                       # What read queue length does an incoming req see
system.mem_ctrls.rdQLenPdf::28                      0                       # What read queue length does an incoming req see
system.mem_ctrls.rdQLenPdf::29                      0                       # What read queue length does an incoming req see
system.mem_ctrls.rdQLenPdf::30                      0                       # What read queue length does an incoming req see
system.mem_ctrls.rdQLenPdf::31                      0                       # What read queue length does an incoming req see
system.mem_ctrls.wrQLenPdf::0                       0                       # What write queue length does an incoming req see
system.mem_ctrls.wrQLenPdf::1                       0                       # What write queue length does an incoming req see
system.mem_ctrls.wrQLenPdf::2                       0                       # What write queue length does an incoming req see
system.mem_ctrls.wrQLenPdf::3                       0                       # What write queue length does an incoming req see
system.mem_ctrls.wrQLenPdf::4                       0                       # What write queue length does an incoming req see
system.mem_ctrls.wrQLenPdf::5                       0                       # What write queue length does an incoming req see
system.mem_ctrls.wrQLenPdf::6                       0                       # What write queue length does an incoming req see
system.mem_ctrls.wrQLenPdf::7                       0                       # What write queue length does an incoming req see
system.mem_ctrls.wrQLenPdf::8                       0                       # What write queue length does an incoming req see
system.mem_ctrls.wrQLenPdf::9                       0                       # What write queue length does an incoming req see
system.mem_ctrls.wrQLenPdf::10                      0                       # What write queue length does an incoming req see
system.mem_ctrls.wrQLenPdf::11                      0                       # What write queue length does an incoming req see
system.mem_ctrls.wrQLenPdf::12                      0                       # What write queue length does an incoming req see
system.mem_ctrls.wrQLenPdf::13                      0                       # What write queue length does an incoming req see
system.mem_ctrls.wrQLenPdf::14                      0                       # What write queue length does an incoming req see
system.mem_ctrls.wrQLenPdf::15                      0                       # What write queue length does an incoming req see
system.mem_ctrls.wrQLenPdf::16                      0                       # What write queue length does an incoming req see
system.mem_ctrls.wrQLenPdf::17                      0                       # What write queue length does an incoming req see
system.mem_ctrls.wrQLenPdf::18                      0                       # What write queue length does an incoming req see
system.mem_ctrls.wrQLenPdf::19                      0                       # What write queue length does an incoming req see
system.mem_ctrls.wrQLenPdf::20                      0                       # What write queue length does an incoming req see
system.mem_ctrls.wrQLenPdf::21                      0                       # What write queue length does an incoming req see
system.mem_ctrls.wrQLenPdf::22                      0                       # What write queue length does an incoming req see
system.mem_ctrls.wrQLenPdf::23                      0                       # What write queue length does an incoming req see
system.mem_ctrls.wrQLenPdf::24                      0                       # What write queue length does an incoming req see
system.mem_ctrls.wrQLenPdf::25                      0                       # What write queue length does an incoming req see
system.mem_ctrls.wrQLenPdf::26                      0                       # What write queue length does an incoming req see
system.mem_ctrls.wrQLenPdf::27                      0                       # What write queue length does an incoming req see
system.mem_ctrls.wrQLenPdf::28                      0                       # What write queue length does an incoming req see
system.mem_ctrls.wrQLenPdf::29                      0                       # What write queue length does an incoming req see
system.mem_ctrls.wrQLenPdf::30                      0                       # What write queue length does an incoming req see
system.mem_ctrls.wrQLenPdf::31                      0                       # What write queue length does an incoming req see
system.mem_ctrls.wrQLenPdf::32                      0                       # What write queue length does an incoming req see
system.mem_ctrls.wrQLenPdf::33                      0                       # What write queue length does an incoming req see
system.mem_ctrls.wrQLenPdf::34                      0                       # What write queue length does an incoming req see
system.mem_ctrls.wrQLenPdf::35                      0                       # What write queue length does an incoming req see
system.mem_ctrls.wrQLenPdf::36                      0                       # What write queue length does an incoming req see
system.mem_ctrls.wrQLenPdf::37                      0                       # What write queue length does an incoming req see
system.mem_ctrls.wrQLenPdf::38                      0                       # What write queue length does an incoming req see
system.mem_ctrls.wrQLenPdf::39                      0                       # What write queue length does an incoming req see
system.mem_ctrls.wrQLenPdf::40                      0                       # What write queue length does an incoming req see
system.mem_ctrls.wrQLenPdf::41                      0                       # What write queue length does an incoming req see
system.mem_ctrls.wrQLenPdf::42                      0                       # What write queue length does an incoming req see
system.mem_ctrls.wrQLenPdf::43                      0                       # What write queue length does an incoming req see
system.mem_ctrls.wrQLenPdf::44                      0                       # What write queue length does an incoming req see
system.mem_ctrls.wrQLenPdf::45                      0                       # What write queue length does an incoming req see
system.mem_ctrls.wrQLenPdf::46                      0                       # What write queue length does an incoming req see
system.mem_ctrls.wrQLenPdf::47                      0                       # What write queue length does an incoming req see
system.mem_ctrls.wrQLenPdf::48                      0                       # What write queue length does an incoming req see
system.mem_ctrls.wrQLenPdf::49                      0                       # What write queue length does an incoming req see
system.mem_ctrls.wrQLenPdf::50                      0                       # What write queue length does an incoming req see
system.mem_ctrls.wrQLenPdf::51                      0                       # What write queue length does an incoming req see
system.mem_ctrls.wrQLenPdf::52                      0                       # What write queue length does an incoming req see
system.mem_ctrls.wrQLenPdf::53                      0                       # What write queue length does an incoming req see
system.mem_ctrls.wrQLenPdf::54                      0                       # What write queue length does an incoming req see
system.mem_ctrls.wrQLenPdf::55                      0                       # What write queue length does an incoming req see
system.mem_ctrls.wrQLenPdf::56                      0                       # What write queue length does an incoming req see
system.mem_ctrls.wrQLenPdf::57                      0                       # What write queue length does an incoming req see
system.mem_ctrls.wrQLenPdf::58                      0                       # What write queue length does an incoming req see
system.mem_ctrls.wrQLenPdf::59                      0                       # What write queue length does an incoming req see
system.mem_ctrls.wrQLenPdf::60                      0                       # What write queue length does an incoming req see
system.mem_ctrls.wrQLenPdf::61                      0                       # What write queue length does an incoming req see
system.mem_ctrls.wrQLenPdf::62                      0                       # What write queue length does an incoming req see
system.mem_ctrls.wrQLenPdf::63                      0                       # What write queue length does an incoming req see
system.mem_ctrls.bytesPerActivate::samples         2579                       # Bytes accessed per row activation
system.mem_ctrls.bytesPerActivate::mean    199.692904                       # Bytes accessed per row activation
system.mem_ctrls.bytesPerActivate::gmean   127.517189                       # Bytes accessed per row activation
system.mem_ctrls.bytesPerActivate::stdev   240.078146                       # Bytes accessed per row activation
system.mem_ctrls.bytesPerActivate::0-127         1281     49.67%     49.67% # Bytes accessed per row activation
system.mem_ctrls.bytesPerActivate::128-255          717     27.80%     77.47% # Bytes accessed per row activation
system.mem_ctrls.bytesPerActivate::256-383          179      6.94%     84.41% # Bytes accessed per row activation
system.mem_ctrls.bytesPerActivate::384-511          117      4.54%     88.95% # Bytes accessed per row activation
system.mem_ctrls.bytesPerActivate::512-639           76      2.95%     91.90% # Bytes accessed per row activation
system.mem_ctrls.bytesPerActivate::640-767           49      1.90%     93.80% # Bytes accessed per row activation
system.mem_ctrls.bytesPerActivate::768-895           29      1.12%     94.92% # Bytes accessed per row activation
system.mem_ctrls.bytesPerActivate::896-1023           20      0.78%     95.70% # Bytes accessed per row activation
system.mem_ctrls.bytesPerActivate::1024-1151          111      4.30%    100.00% # Bytes accessed per row activation
system.mem_ctrls.bytesPerActivate::total         2579                       # Bytes accessed per row activation
system.mem_ctrls.totQLat                    139492250                       # Total ticks spent queuing
system.mem_ctrls.totMemAccLat               290598500                       # Total ticks spent from burst creation until serviced by the DRAM
system.mem_ctrls.totBusLat                   40295000                       # Total ticks spent in databus transfers
system.mem_ctrls.avgQLat                     17308.88                       # Average queueing delay per DRAM burst
system.mem_ctrls.avgBusLat                    5000.00                       # Average bus latency per DRAM burst
system.mem_ctrls.avgMemAccLat                36058.88                       # Average memory access latency per DRAM burst
system.mem_ctrls.avgRdBW                       515.78                       # Average DRAM read bandwidth in MiByte/s
system.mem_ctrls.avgWrBW                         0.00                       # Average achieved write bandwidth in MiByte/s
system.mem_ctrls.avgRdBWSys                    515.78                       # Average system read bandwidth in MiByte/s
system.mem_ctrls.avgWrBWSys                      0.00                       # Average system write bandwidth in MiByte/s
system.mem_ctrls.peakBW                      12800.00                       # Theoretical peak bandwidth in MiByte/s
system.mem_ctrls.busUtil                         4.03                       # Data bus utilization in percentage
system.mem_ctrls.busUtilRead                     4.03                       # Data bus utilization in percentage for reads
system.mem_ctrls.busUtilWrite                    0.00                       # Data bus utilization in percentage for writes
system.mem_ctrls.avgRdQLen                       1.20                       # Average read queue length when enqueuing
system.mem_ctrls.avgWrQLen                       0.00                       # Average write queue length when enqueuing
system.mem_ctrls.readRowHits                     5472                       # Number of row buffer hits during reads
system.mem_ctrls.writeRowHits                       0                       # Number of row buffer hits during writes
system.mem_ctrls.readRowHitRate                 67.90                       # Row buffer hit rate for reads
system.mem_ctrls.writeRowHitRate                  nan                       # Row buffer hit rate for writes
system.mem_ctrls.avgGap                     124043.99                       # Average gap between requests
system.mem_ctrls.pageHitRate                    67.90                       # Row buffer hit rate, read and write combined
system.mem_ctrls_0.actEnergy                  7839720                       # Energy for activate commands per rank (pJ)
system.mem_ctrls_0.preEnergy                  4151730                       # Energy for precharge commands per rank (pJ)
system.mem_ctrls_0.readEnergy                26796420                       # Energy for read commands per rank (pJ)
system.mem_ctrls_0.writeEnergy                      0                       # Energy for write commands per rank (pJ)
system.mem_ctrls_0.refreshEnergy         78059280.000000                       # Energy for refresh commands per rank (pJ)
system.mem_ctrls_0.actBackEnergy             64280610                       # Energy for active background per rank (pJ)
system.mem_ctrls_0.preBackEnergy              1907040                       # Energy for precharge background per rank (pJ)
system.mem_ctrls_0.actPowerDownEnergy       368450850                       # Energy for active power-down per rank (pJ)
system.mem_ctrls_0.prePowerDownEnergy        12584160                       # Energy for precharge power-down per rank (pJ)
system.mem_ctrls_0.selfRefreshEnergy          3741840                       # Energy for self refresh per rank (pJ)
system.mem_ctrls_0.totalEnergy              567811650                       # Total energy per rank (pJ)
system.mem_ctrls_0.averagePower            567.811650                       # Core power per rank (mW)
system.mem_ctrls_0.totalIdleTime            852645000                       # Total Idle time Per DRAM Rank
system.mem_ctrls_0.memoryStateTime::IDLE      1055500                       # Time in different power states
system.mem_ctrls_0.memoryStateTime::REF      33026000                       # Time in different power states
system.mem_ctrls_0.memoryStateTime::SREF     13289250                       # Time in different power states
system.mem_ctrls_0.memoryStateTime::PRE_PDN     32754250                       # Time in different power states
system.mem_ctrls_0.memoryStateTime::ACT     111938000                       # Time in different power states
system.mem_ctrls_0.memoryStateTime::ACT_PDN    807937000                       # Time in different power states
system.mem_ctrls_1.actEnergy                 10631460                       # Energy for activate commands per rank (pJ)
system.mem_ctrls_1.preEnergy                  5635575                       # Energy for precharge commands per rank (pJ)
system.mem_ctrls_1.readEnergy                30744840                       # Energy for read commands per rank (pJ)
system.mem_ctrls_1.writeEnergy                      0                       # Energy for write commands per rank (pJ)
system.mem_ctrls_1.refreshEnergy         78673920.000000                       # Energy for refresh commands per rank (pJ)
system.mem_ctrls_1.actBackEnergy             71067600                       # Energy for active background per rank (pJ)
system.mem_ctrls_1.preBackEnergy              2652000                       # Energy for precharge background per rank (pJ)
system.mem_ctrls_1.actPowerDownEnergy       370461240                       # Energy for active power-down per rank (pJ)
system.mem_ctrls_1.prePowerDownEnergy         9534240                       # Energy for precharge power-down per rank (pJ)
system.mem_ctrls_1.selfRefreshEnergy                0                       # Energy for self refresh per rank (pJ)
system.mem_ctrls_1.totalEnergy              579400875                       # Total energy per rank (pJ)
system.mem_ctrls_1.averagePower            579.400875                       # Core power per rank (mW)
system.mem_ctrls_1.totalIdleTime            837002250                       # Total Idle time Per DRAM Rank
system.mem_ctrls_1.memoryStateTime::IDLE      3099500                       # Time in different power states
system.mem_ctrls_1.memoryStateTime::REF      33280000                       # Time in different power states
system.mem_ctrls_1.memoryStateTime::SREF            0                       # Time in different power states
system.mem_ctrls_1.memoryStateTime::PRE_PDN     24816500                       # Time in different power states
system.mem_ctrls_1.memoryStateTime::ACT     126353000                       # Time in different power states
system.mem_ctrls_1.memoryStateTime::ACT_PDN    812451000                       # Time in different power states
system.pwrStateResidencyTicks::UNDEFINED   1000000000                       # Cumulative time (in ticks) in various power states
system.cpu0.branchPred.lookups                 398553                       # Number of BP lookups
system.cpu0.branchPred.condPredicted           398553                       # Number of conditional branches predicted
system.cpu0.branchPred.condIncorrect            15022                       # Number of conditional branches incorrect
system.cpu0.branchPred.BTBLookups              361521                       # Number of BTB lookups
system.cpu0.branchPred.BTBHits                      0                       # Number of BTB hits
system.cpu0.branchPred.BTBCorrect                   0                       # Number of correct BTB predictions (this stat may not work properly.
system.cpu0.branchPred.BTBHitPct             0.000000                       # BTB Hit Percentage
system.cpu0.branchPred.usedRAS                  11400                       # Number of times the RAS was used to get a target.
system.cpu0.branchPred.RASInCorrect              1327                       # Number of incorrect RAS predictions.
system.cpu0.branchPred.indirectLookups         361521                       # Number of indirect predictor lookups.
system.cpu0.branchPred.indirectHits            194792                       # Number of indirect target hits.
system.cpu0.branchPred.indirectMisses          166729                       # Number of indirect misses.
system.cpu0.branchPredindirectMispredicted         6309                       # Number of mispredicted indirect branches.
system.cpu_voltage_domain.voltage                   1                       # Voltage in Volts
system.cpu_clk_domain.clock                       500                       # Clock period in ticks
system.cpu0.dtb.walker.pwrStateResidencyTicks::UNDEFINED   1000000000                       # Cumulative time (in ticks) in various power states
system.cpu0.dtb.rdAccesses                     487720                       # TLB accesses on read requests
system.cpu0.dtb.wrAccesses                     188057                       # TLB accesses on write requests
system.cpu0.dtb.rdMisses                         1915                       # TLB misses on read requests
system.cpu0.dtb.wrMisses                          221                       # TLB misses on write requests
system.cpu0.apic_clk_domain.clock                8000                       # Clock period in ticks
system.cpu0.interrupts.pwrStateResidencyTicks::UNDEFINED   1000000000                       # Cumulative time (in ticks) in various power states
system.cpu0.itb.walker.pwrStateResidencyTicks::UNDEFINED   1000000000                       # Cumulative time (in ticks) in various power states
system.cpu0.itb.rdAccesses                          0                       # TLB accesses on read requests
system.cpu0.itb.wrAccesses                     187358                       # TLB accesses on write requests
system.cpu0.itb.rdMisses                            0                       # TLB misses on read requests
system.cpu0.itb.wrMisses                          226                       # TLB misses on write requests
system.cpu0.workload.numSyscalls                   51                       # Number of system calls
system.cpu0.pwrStateResidencyTicks::ON     1000000000                       # Cumulative time (in ticks) in various power states
system.cpu0.numCycles                         2000001                       # number of cpu cycles simulated
system.cpu0.numWorkItemsStarted                     0                       # number of work items this cpu started
system.cpu0.numWorkItemsCompleted                   0                       # number of work items this cpu completed
system.cpu0.fetch.icacheStallCycles            217814                       # Number of cycles fetch is stalled on an Icache miss
system.cpu0.fetch.Insts                       2449781                       # Number of instructions fetch has processed
system.cpu0.fetch.Branches                     398553                       # Number of branches that fetch encountered
system.cpu0.fetch.predictedBranches            206192                       # Number of branches that fetch has predicted taken
system.cpu0.fetch.Cycles                      1713388                       # Number of cycles fetch has run and was not squashing or blocked
system.cpu0.fetch.SquashCycles                  30250                       # Number of cycles fetch has spent squashing
system.cpu0.fetch.TlbCycles                       162                       # Number of cycles fetch has spent waiting for tlb
system.cpu0.fetch.MiscStallCycles                  73                       # Number of cycles fetch has spent waiting on interrupts, or bad addresses, or out of MSHRs
system.cpu0.fetch.PendingTrapStallCycles          667                       # Number of stall cycles due to pending traps
system.cpu0.fetch.IcacheWaitRetryStallCycles           17                       # Number of stall cycles due to full MSHR
system.cpu0.fetch.CacheLines                   187260                       # Number of cache lines fetched
system.cpu0.fetch.IcacheSquashes                 3503                       # Number of outstanding Icache misses that were squashed
system.cpu0.fetch.rateDist::samples           1947246                       # Number of instructions fetched each cycle (Total)
system.cpu0.fetch.rateDist::mean             2.179984                       # Number of instructions fetched each cycle (Total)
system.cpu0.fetch.rateDist::stdev            3.260489                       # Number of instructions fetched each cycle (Total)
system.cpu0.fetch.rateDist::underflows              0      0.00%      0.00% # Number of instructions fetched each cycle (Total)
system.cpu0.fetch.rateDist::0                 1273044     65.38%     65.38% # Number of instructions fetched each cycle (Total)
system.cpu0.fetch.rateDist::1                   22430      1.15%     66.53% # Number of instructions fetched each cycle (Total)
system.cpu0.fetch.rateDist::2                   31754      1.63%     68.16% # Number of instructions fetched each cycle (Total)
system.cpu0.fetch.rateDist::3                   29519      1.52%     69.68% # Number of instructions fetched each cycle (Total)
system.cpu0.fetch.rateDist::4                  107834      5.54%     75.21% # Number of instructions fetched each cycle (Total)
system.cpu0.fetch.rateDist::5                   28542      1.47%     76.68% # Number of instructions fetched each cycle (Total)
system.cpu0.fetch.rateDist::6                   42613      2.19%     78.87% # Number of instructions fetched each cycle (Total)
system.cpu0.fetch.rateDist::7                   51334      2.64%     81.50% # Number of instructions fetched each cycle (Total)
system.cpu0.fetch.rateDist::8                  360176     18.50%    100.00% # Number of instructions fetched each cycle (Total)
system.cpu0.fetch.rateDist::overflows               0      0.00%    100.00% # Number of instructions fetched each cycle (Total)
system.cpu0.fetch.rateDist::min_value               0                       # Number of instructions fetched each cycle (Total)
system.cpu0.fetch.rateDist::max_value               8                       # Number of instructions fetched each cycle (Total)
system.cpu0.fetch.rateDist::total             1947246                       # Number of instructions fetched each cycle (Total)
system.cpu0.fetch.branchRate                 0.199276                       # Number of branch fetches per cycle
system.cpu0.fetch.rate                       1.224890                       # Number of inst fetches per cycle
system.cpu0.decode.IdleCycles                  210755                       # Number of cycles decode is idle
system.cpu0.decode.BlockedCycles              1166294                       # Number of cycles decode is blocked
system.cpu0.decode.RunCycles                   396726                       # Number of cycles decode is running
system.cpu0.decode.UnblockCycles               158346                       # Number of cycles decode is unblocking
system.cpu0.decode.SquashCycles                 15125                       # Number of cycles decode is squashing
system.cpu0.decode.DecodedInsts               4030930                       # Number of instructions handled by decode
system.cpu0.rename.SquashCycles                 15125                       # Number of cycles rename is squashing
system.cpu0.rename.IdleCycles                  270262                       # Number of cycles rename is idle
system.cpu0.rename.BlockCycles                 857753                       # Number of cycles rename is blocking
system.cpu0.rename.serializeStallCycles          5760                       # count of cycles rename stalled for serializing inst
system.cpu0.rename.RunCycles                   487964                       # Number of cycles rename is running
system.cpu0.rename.UnblockCycles               310382                       # Number of cycles rename is unblocking
system.cpu0.rename.RenamedInsts               3952151                       # Number of instructions processed by rename
system.cpu0.rename.ROBFullEvents                 3531                       # Number of times rename has blocked due to ROB full
system.cpu0.rename.IQFullEvents                178391                       # Number of times rename has blocked due to IQ full
system.cpu0.rename.LQFullEvents                 17042                       # Number of times rename has blocked due to LQ full
system.cpu0.rename.SQFullEvents                 68009                       # Number of times rename has blocked due to SQ full
system.cpu0.rename.FullRegisterEvents              25                       # Number of times there has been no free registers
system.cpu0.rename.RenamedOperands            5322307                       # Number of destination operands rename has renamed
system.cpu0.rename.RenameLookups             10262507                       # Number of register rename lookups that rename has made
system.cpu0.rename.int_rename_lookups         6371854                       # Number of integer rename lookups
system.cpu0.rename.fp_rename_lookups           113207                       # Number of floating rename lookups
system.cpu0.rename.CommittedMaps              4053863                       # Number of HB maps that are committed
system.cpu0.rename.UndoneMaps                 1268386                       # Number of HB maps that are undone due to squashing
system.cpu0.rename.serializingInsts               131                       # count of serializing insts renamed
system.cpu0.rename.tempSerializingInsts           105                       # count of temporary serializing insts renamed
system.cpu0.rename.skidInsts                   670200                       # count of insts added to the skid buffer
system.cpu0.memDep0.insertedLoads              525840                       # Number of loads inserted to the mem dependence unit.
system.cpu0.memDep0.insertedStores             205763                       # Number of stores inserted to the mem dependence unit.
system.cpu0.memDep0.conflictingLoads            21994                       # Number of conflicting loads.
system.cpu0.memDep0.conflictingStores            7881                       # Number of conflicting stores.
system.cpu0.iq.iqInstsAdded                   3823477                       # Number of instructions added to the IQ (excludes non-spec)
system.cpu0.iq.iqNonSpecInstsAdded                 89                       # Number of non-speculative instructions added to the IQ
system.cpu0.iq.iqInstsIssued                  3490001                       # Number of instructions issued
system.cpu0.iq.iqSquashedInstsIssued             3485                       # Number of squashed instructions issued
system.cpu0.iq.iqSquashedInstsExamined         846854                       # Number of squashed instructions iterated over during squash; mainly for profiling
system.cpu0.iq.iqSquashedOperandsExamined      1314748                       # Number of squashed operands that are examined and possibly removed from graph
system.cpu0.iq.iqSquashedNonSpecRemoved            38                       # Number of squashed non-spec instructions that were removed
system.cpu0.iq.issued_per_cycle::samples      1947246                       # Number of insts issued each cycle
system.cpu0.iq.issued_per_cycle::mean        1.792275                       # Number of insts issued each cycle
system.cpu0.iq.issued_per_cycle::stdev       2.308995                       # Number of insts issued each cycle
system.cpu0.iq.issued_per_cycle::underflows            0      0.00%      0.00% # Number of insts issued each cycle
system.cpu0.iq.issued_per_cycle::0            1017573     52.26%     52.26% # Number of insts issued each cycle
system.cpu0.iq.issued_per_cycle::1             125944      6.47%     58.72% # Number of insts issued each cycle
system.cpu0.iq.issued_per_cycle::2             158916      8.16%     66.89% # Number of insts issued each cycle
system.cpu0.iq.issued_per_cycle::3             174600      8.97%     75.85% # Number of insts issued each cycle
system.cpu0.iq.issued_per_cycle::4             154453      7.93%     83.78% # Number of insts issued each cycle
system.cpu0.iq.issued_per_cycle::5             125567      6.45%     90.23% # Number of insts issued each cycle
system.cpu0.iq.issued_per_cycle::6              96202      4.94%     95.17% # Number of insts issued each cycle
system.cpu0.iq.issued_per_cycle::7              52362      2.69%     97.86% # Number of insts issued each cycle
system.cpu0.iq.issued_per_cycle::8              41629      2.14%    100.00% # Number of insts issued each cycle
system.cpu0.iq.issued_per_cycle::overflows            0      0.00%    100.00% # Number of insts issued each cycle
system.cpu0.iq.issued_per_cycle::min_value            0                       # Number of insts issued each cycle
system.cpu0.iq.issued_per_cycle::max_value            8                       # Number of insts issued each cycle
system.cpu0.iq.issued_per_cycle::total        1947246                       # Number of insts issued each cycle
system.cpu0.iq.fu_full::No_OpClass                  0      0.00%      0.00% # attempts to use FU when none available
system.cpu0.iq.fu_full::IntAlu                  36844     65.67%     65.67% # attempts to use FU when none available
system.cpu0.iq.fu_full::IntMult                     0      0.00%     65.67% # attempts to use FU when none available
system.cpu0.iq.fu_full::IntDiv                      0      0.00%     65.67% # attempts to use FU when none available
system.cpu0.iq.fu_full::FloatAdd                  188      0.34%     66.01% # attempts to use FU when none available
system.cpu0.iq.fu_full::FloatCmp                    0      0.00%     66.01% # attempts to use FU when none available
system.cpu0.iq.fu_full::FloatCvt                    0      0.00%     66.01% # attempts to use FU when none available
system.cpu0.iq.fu_full::FloatMult                   0      0.00%     66.01% # attempts to use FU when none available
system.cpu0.iq.fu_full::FloatMultAcc                0      0.00%     66.01% # attempts to use FU when none available
system.cpu0.iq.fu_full::FloatDiv                    0      0.00%     66.01% # attempts to use FU when none available
system.cpu0.iq.fu_full::FloatMisc                   0      0.00%     66.01% # attempts to use FU when none available
system.cpu0.iq.fu_full::FloatSqrt                   0      0.00%     66.01% # attempts to use FU when none available
system.cpu0.iq.fu_full::SimdAdd                     0      0.00%     66.01% # attempts to use FU when none available
system.cpu0.iq.fu_full::SimdAddAcc                  0      0.00%     66.01% # attempts to use FU when none available
system.cpu0.iq.fu_full::SimdAlu                     0      0.00%     66.01% # attempts to use FU when none available
system.cpu0.iq.fu_full::SimdCmp                     0      0.00%     66.01% # attempts to use FU when none available
system.cpu0.iq.fu_full::SimdCvt                     0      0.00%     66.01% # attempts to use FU when none available
system.cpu0.iq.fu_full::SimdMisc                    0      0.00%     66.01% # attempts to use FU when none available
system.cpu0.iq.fu_full::SimdMult                    0      0.00%     66.01% # attempts to use FU when none available
system.cpu0.iq.fu_full::SimdMultAcc                 0      0.00%     66.01% # attempts to use FU when none available
system.cpu0.iq.fu_full::SimdShift                   0      0.00%     66.01% # attempts to use FU when none available
system.cpu0.iq.fu_full::SimdShiftAcc                0      0.00%     66.01% # attempts to use FU when none available
system.cpu0.iq.fu_full::SimdSqrt                    0      0.00%     66.01% # attempts to use FU when none available
system.cpu0.iq.fu_full::SimdFloatAdd                0      0.00%     66.01% # attempts to use FU when none available
system.cpu0.iq.fu_full::SimdFloatAlu                0      0.00%     66.01% # attempts to use FU when none available
system.cpu0.iq.fu_full::SimdFloatCmp                0      0.00%     66.01% # attempts to use FU when none available
system.cpu0.iq.fu_full::SimdFloatCvt                0      0.00%     66.01% # attempts to use FU when none available
system.cpu0.iq.fu_full::SimdFloatDiv                0      0.00%     66.01% # attempts to use FU when none available
system.cpu0.iq.fu_full::SimdFloatMisc               0      0.00%     66.01% # attempts to use FU when none available
system.cpu0.iq.fu_full::SimdFloatMult               0      0.00%     66.01% # attempts to use FU when none available
system.cpu0.iq.fu_full::SimdFloatMultAcc            0      0.00%     66.01% # attempts to use FU when none available
system.cpu0.iq.fu_full::SimdFloatSqrt               0      0.00%     66.01% # attempts to use FU when none available
system.cpu0.iq.fu_full::MemRead                 10862     19.36%     85.37% # attempts to use FU when none available
system.cpu0.iq.fu_full::MemWrite                 8045     14.34%     99.71% # attempts to use FU when none available
system.cpu0.iq.fu_full::FloatMemRead              121      0.22%     99.92% # attempts to use FU when none available
system.cpu0.iq.fu_full::FloatMemWrite              44      0.08%    100.00% # attempts to use FU when none available
system.cpu0.iq.fu_full::IprAccess                   0      0.00%    100.00% # attempts to use FU when none available
system.cpu0.iq.fu_full::InstPrefetch                0      0.00%    100.00% # attempts to use FU when none available
system.cpu0.iq.FU_type_0::No_OpClass            20470      0.59%      0.59% # Type of FU issued
system.cpu0.iq.FU_type_0::IntAlu              2718061     77.88%     78.47% # Type of FU issued
system.cpu0.iq.FU_type_0::IntMult                  52      0.00%     78.47% # Type of FU issued
system.cpu0.iq.FU_type_0::IntDiv                34441      0.99%     79.46% # Type of FU issued
system.cpu0.iq.FU_type_0::FloatAdd              31867      0.91%     80.37% # Type of FU issued
system.cpu0.iq.FU_type_0::FloatCmp                  0      0.00%     80.37% # Type of FU issued
system.cpu0.iq.FU_type_0::FloatCvt                  0      0.00%     80.37% # Type of FU issued
system.cpu0.iq.FU_type_0::FloatMult                 0      0.00%     80.37% # Type of FU issued
system.cpu0.iq.FU_type_0::FloatMultAcc              0      0.00%     80.37% # Type of FU issued
system.cpu0.iq.FU_type_0::FloatDiv                  0      0.00%     80.37% # Type of FU issued
system.cpu0.iq.FU_type_0::FloatMisc                 0      0.00%     80.37% # Type of FU issued
system.cpu0.iq.FU_type_0::FloatSqrt                 0      0.00%     80.37% # Type of FU issued
system.cpu0.iq.FU_type_0::SimdAdd                   0      0.00%     80.37% # Type of FU issued
system.cpu0.iq.FU_type_0::SimdAddAcc                0      0.00%     80.37% # Type of FU issued
system.cpu0.iq.FU_type_0::SimdAlu                   0      0.00%     80.37% # Type of FU issued
system.cpu0.iq.FU_type_0::SimdCmp                   0      0.00%     80.37% # Type of FU issued
system.cpu0.iq.FU_type_0::SimdCvt                   0      0.00%     80.37% # Type of FU issued
system.cpu0.iq.FU_type_0::SimdMisc                  0      0.00%     80.37% # Type of FU issued
system.cpu0.iq.FU_type_0::SimdMult                  0      0.00%     80.37% # Type of FU issued
system.cpu0.iq.FU_type_0::SimdMultAcc               0      0.00%     80.37% # Type of FU issued
system.cpu0.iq.FU_type_0::SimdShift                 0      0.00%     80.37% # Type of FU issued
system.cpu0.iq.FU_type_0::SimdShiftAcc              0      0.00%     80.37% # Type of FU issued
system.cpu0.iq.FU_type_0::SimdSqrt                  0      0.00%     80.37% # Type of FU issued
system.cpu0.iq.FU_type_0::SimdFloatAdd              0      0.00%     80.37% # Type of FU issued
system.cpu0.iq.FU_type_0::SimdFloatAlu              0      0.00%     80.37% # Type of FU issued
system.cpu0.iq.FU_type_0::SimdFloatCmp              0      0.00%     80.37% # Type of FU issued
system.cpu0.iq.FU_type_0::SimdFloatCvt              0      0.00%     80.37% # Type of FU issued
system.cpu0.iq.FU_type_0::SimdFloatDiv              0      0.00%     80.37% # Type of FU issued
system.cpu0.iq.FU_type_0::SimdFloatMisc             0      0.00%     80.37% # Type of FU issued
system.cpu0.iq.FU_type_0::SimdFloatMult             0      0.00%     80.37% # Type of FU issued
system.cpu0.iq.FU_type_0::SimdFloatMultAcc            0      0.00%     80.37% # Type of FU issued
system.cpu0.iq.FU_type_0::SimdFloatSqrt             0      0.00%     80.37% # Type of FU issued
system.cpu0.iq.FU_type_0::MemRead              478947     13.72%     94.09% # Type of FU issued
system.cpu0.iq.FU_type_0::MemWrite             190051      5.45%     99.54% # Type of FU issued
system.cpu0.iq.FU_type_0::FloatMemRead          15520      0.44%     99.98% # Type of FU issued
system.cpu0.iq.FU_type_0::FloatMemWrite           592      0.02%    100.00% # Type of FU issued
system.cpu0.iq.FU_type_0::IprAccess                 0      0.00%    100.00% # Type of FU issued
system.cpu0.iq.FU_type_0::InstPrefetch              0      0.00%    100.00% # Type of FU issued
system.cpu0.iq.FU_type_0::total               3490001                       # Type of FU issued
system.cpu0.iq.rate                          1.745000                       # Inst issue rate
system.cpu0.iq.fu_busy_cnt                      56104                       # FU busy when requested
system.cpu0.iq.fu_busy_rate                  0.016076                       # FU busy rate (busy events/executed inst)
system.cpu0.iq.int_inst_queue_reads           8889660                       # Number of integer instruction queue reads
system.cpu0.iq.int_inst_queue_writes          4582856                       # Number of integer instruction queue writes
system.cpu0.iq.int_inst_queue_wakeup_accesses      3396559                       # Number of integer instruction queue wakeup accesses
system.cpu0.iq.fp_inst_queue_reads              97173                       # Number of floating instruction queue reads
system.cpu0.iq.fp_inst_queue_writes             87627                       # Number of floating instruction queue writes
system.cpu0.iq.fp_inst_queue_wakeup_accesses        44752                       # Number of floating instruction queue wakeup accesses
system.cpu0.iq.vec_inst_queue_reads                 0                       # Number of vector instruction queue reads
system.cpu0.iq.vec_inst_queue_writes                0                       # Number of vector instruction queue writes
system.cpu0.iq.vec_inst_queue_wakeup_accesses            0                       # Number of vector instruction queue wakeup accesses
system.cpu0.iq.int_alu_accesses               3477044                       # Number of integer alu accesses
system.cpu0.iq.fp_alu_accesses                  48591                       # Number of floating point alu accesses
system.cpu0.iq.vec_alu_accesses                     0                       # Number of vector alu accesses
system.cpu0.iew.lsq.thread0.forwLoads           56053                       # Number of loads that had data forwarded from stores
system.cpu0.iew.lsq.thread0.invAddrLoads            0                       # Number of loads ignored due to an invalid address
system.cpu0.iew.lsq.thread0.squashedLoads       116981                       # Number of loads squashed
system.cpu0.iew.lsq.thread0.ignoredResponses          150                       # Number of memory responses ignored because the instruction is squashed
system.cpu0.iew.lsq.thread0.memOrderViolation           70                       # Number of memory ordering violations
system.cpu0.iew.lsq.thread0.squashedStores        47975                       # Number of stores squashed
system.cpu0.iew.lsq.thread0.invAddrSwpfs            0                       # Number of software prefetches ignored due to an invalid address
system.cpu0.iew.lsq.thread0.blockedLoads            0                       # Number of blocked loads due to partial load-store forwarding
system.cpu0.iew.lsq.thread0.rescheduledLoads           10                       # Number of loads that were rescheduled
system.cpu0.iew.lsq.thread0.cacheBlocked          323                       # Number of times an access to memory failed due to the cache being blocked
system.cpu0.iew.iewIdleCycles                       0                       # Number of cycles IEW is idle
system.cpu0.iew.iewSquashCycles                 15125                       # Number of cycles IEW is squashing
system.cpu0.iew.iewBlockCycles                 744351                       # Number of cycles IEW is blocking
system.cpu0.iew.iewUnblockCycles                23230                       # Number of cycles IEW is unblocking
system.cpu0.iew.iewDispatchedInsts            3823566                       # Number of instructions dispatched to IQ
system.cpu0.iew.iewDispSquashedInsts              872                       # Number of squashed instructions skipped by dispatch
system.cpu0.iew.iewDispLoadInsts               525840                       # Number of dispatched load instructions
system.cpu0.iew.iewDispStoreInsts              205763                       # Number of dispatched store instructions
system.cpu0.iew.iewDispNonSpecInsts                89                       # Number of dispatched non-speculative instructions
system.cpu0.iew.iewIQFullEvents                  6673                       # Number of times the IQ has become full, causing a stall
system.cpu0.iew.iewLSQFullEvents                14080                       # Number of times the LSQ has become full, causing a stall
system.cpu0.iew.memOrderViolationEvents            70                       # Number of memory order violations
system.cpu0.iew.predictedTakenIncorrect          6305                       # Number of branches that were predicted taken incorrectly
system.cpu0.iew.predictedNotTakenIncorrect        12206                       # Number of branches that were predicted not taken incorrectly
system.cpu0.iew.branchMispredicts               18511                       # Number of branch mispredicts detected at execute
system.cpu0.iew.iewExecutedInsts              3459375                       # Number of executed instructions
system.cpu0.iew.iewExecLoadInsts               487451                       # Number of load instructions executed
system.cpu0.iew.iewExecSquashedInsts            30622                       # Number of squashed instructions skipped in execute
system.cpu0.iew.exec_swp                            0                       # number of swp insts executed
system.cpu0.iew.exec_nop                            0                       # number of nop insts executed
system.cpu0.iew.exec_refs                      675493                       # number of memory reference insts executed
system.cpu0.iew.exec_branches                  300358                       # Number of branches executed
system.cpu0.iew.exec_stores                    188042                       # Number of stores executed
system.cpu0.iew.exec_rate                    1.729687                       # Inst execution rate
system.cpu0.iew.wb_sent                       3449050                       # cumulative count of insts sent to commit
system.cpu0.iew.wb_count                      3441311                       # cumulative count of insts written-back
system.cpu0.iew.wb_producers                  2750883                       # num instructions producing a value
system.cpu0.iew.wb_consumers                  5005637                       # num instructions consuming a value
system.cpu0.iew.wb_rate                      1.720655                       # insts written-back per cycle
system.cpu0.iew.wb_fanout                    0.549557                       # average fanout of values written-back
system.cpu0.commit.commitSquashedInsts         847013                       # The number of squashed insts skipped by commit
system.cpu0.commit.commitNonSpecStalls             51                       # The number of times commit has been forced to stall to communicate backwards
system.cpu0.commit.branchMispredicts            15076                       # The number of times a branch was mispredicted
system.cpu0.commit.committed_per_cycle::samples      1829600                       # Number of insts commited each cycle
system.cpu0.commit.committed_per_cycle::mean     1.626955                       # Number of insts commited each cycle
system.cpu0.commit.committed_per_cycle::stdev     2.523428                       # Number of insts commited each cycle
system.cpu0.commit.committed_per_cycle::underflows            0      0.00%      0.00% # Number of insts commited each cycle
system.cpu0.commit.committed_per_cycle::0      1056722     57.76%     57.76% # Number of insts commited each cycle
system.cpu0.commit.committed_per_cycle::1       186720     10.21%     67.96% # Number of insts commited each cycle
system.cpu0.commit.committed_per_cycle::2        72945      3.99%     71.95% # Number of insts commited each cycle
system.cpu0.commit.committed_per_cycle::3       210488     11.50%     83.45% # Number of insts commited each cycle
system.cpu0.commit.committed_per_cycle::4        29059      1.59%     85.04% # Number of insts commited each cycle
system.cpu0.commit.committed_per_cycle::5        85890      4.69%     89.74% # Number of insts commited each cycle
system.cpu0.commit.committed_per_cycle::6         9932      0.54%     90.28% # Number of insts commited each cycle
system.cpu0.commit.committed_per_cycle::7        15428      0.84%     91.12% # Number of insts commited each cycle
system.cpu0.commit.committed_per_cycle::8       162416      8.88%    100.00% # Number of insts commited each cycle
system.cpu0.commit.committed_per_cycle::overflows            0      0.00%    100.00% # Number of insts commited each cycle
system.cpu0.commit.committed_per_cycle::min_value            0                       # Number of insts commited each cycle
system.cpu0.commit.committed_per_cycle::max_value            8                       # Number of insts commited each cycle
system.cpu0.commit.committed_per_cycle::total      1829600                       # Number of insts commited each cycle
system.cpu0.commit.committedInsts             1735750                       # Number of instructions committed
system.cpu0.commit.committedOps               2976676                       # Number of ops (including micro ops) committed
system.cpu0.commit.swp_count                        0                       # Number of s/w prefetches committed
system.cpu0.commit.refs                        566643                       # Number of memory references committed
system.cpu0.commit.loads                       408855                       # Number of loads committed
system.cpu0.commit.membars                          0                       # Number of memory barriers committed
system.cpu0.commit.branches                    277357                       # Number of branches committed
system.cpu0.commit.vec_insts                        0                       # Number of committed Vector instructions.
system.cpu0.commit.fp_insts                     35191                       # Number of committed floating point instructions.
system.cpu0.commit.int_insts                  2938000                       # Number of committed integer instructions.
system.cpu0.commit.function_calls                8485                       # Number of function calls committed.
system.cpu0.commit.op_class_0::No_OpClass        15435      0.52%      0.52% # Class of committed instruction
system.cpu0.commit.op_class_0::IntAlu         2337506     78.53%     79.05% # Class of committed instruction
system.cpu0.commit.op_class_0::IntMult             21      0.00%     79.05% # Class of committed instruction
system.cpu0.commit.op_class_0::IntDiv           32153      1.08%     80.13% # Class of committed instruction
system.cpu0.commit.op_class_0::FloatAdd         24918      0.84%     80.96% # Class of committed instruction
system.cpu0.commit.op_class_0::FloatCmp             0      0.00%     80.96% # Class of committed instruction
system.cpu0.commit.op_class_0::FloatCvt             0      0.00%     80.96% # Class of committed instruction
system.cpu0.commit.op_class_0::FloatMult            0      0.00%     80.96% # Class of committed instruction
system.cpu0.commit.op_class_0::FloatMultAcc            0      0.00%     80.96% # Class of committed instruction
system.cpu0.commit.op_class_0::FloatDiv             0      0.00%     80.96% # Class of committed instruction
system.cpu0.commit.op_class_0::FloatMisc            0      0.00%     80.96% # Class of committed instruction
system.cpu0.commit.op_class_0::FloatSqrt            0      0.00%     80.96% # Class of committed instruction
system.cpu0.commit.op_class_0::SimdAdd              0      0.00%     80.96% # Class of committed instruction
system.cpu0.commit.op_class_0::SimdAddAcc            0      0.00%     80.96% # Class of committed instruction
system.cpu0.commit.op_class_0::SimdAlu              0      0.00%     80.96% # Class of committed instruction
system.cpu0.commit.op_class_0::SimdCmp              0      0.00%     80.96% # Class of committed instruction
system.cpu0.commit.op_class_0::SimdCvt              0      0.00%     80.96% # Class of committed instruction
system.cpu0.commit.op_class_0::SimdMisc             0      0.00%     80.96% # Class of committed instruction
system.cpu0.commit.op_class_0::SimdMult             0      0.00%     80.96% # Class of committed instruction
system.cpu0.commit.op_class_0::SimdMultAcc            0      0.00%     80.96% # Class of committed instruction
system.cpu0.commit.op_class_0::SimdShift            0      0.00%     80.96% # Class of committed instruction
system.cpu0.commit.op_class_0::SimdShiftAcc            0      0.00%     80.96% # Class of committed instruction
system.cpu0.commit.op_class_0::SimdSqrt             0      0.00%     80.96% # Class of committed instruction
system.cpu0.commit.op_class_0::SimdFloatAdd            0      0.00%     80.96% # Class of committed instruction
system.cpu0.commit.op_class_0::SimdFloatAlu            0      0.00%     80.96% # Class of committed instruction
system.cpu0.commit.op_class_0::SimdFloatCmp            0      0.00%     80.96% # Class of committed instruction
system.cpu0.commit.op_class_0::SimdFloatCvt            0      0.00%     80.96% # Class of committed instruction
system.cpu0.commit.op_class_0::SimdFloatDiv            0      0.00%     80.96% # Class of committed instruction
system.cpu0.commit.op_class_0::SimdFloatMisc            0      0.00%     80.96% # Class of committed instruction
system.cpu0.commit.op_class_0::SimdFloatMult            0      0.00%     80.96% # Class of committed instruction
system.cpu0.commit.op_class_0::SimdFloatMultAcc            0      0.00%     80.96% # Class of committed instruction
system.cpu0.commit.op_class_0::SimdFloatSqrt            0      0.00%     80.96% # Class of committed instruction
system.cpu0.commit.op_class_0::MemRead         399201     13.41%     94.37% # Class of committed instruction
system.cpu0.commit.op_class_0::MemWrite        157268      5.28%     99.66% # Class of committed instruction
system.cpu0.commit.op_class_0::FloatMemRead         9654      0.32%     99.98% # Class of committed instruction
system.cpu0.commit.op_class_0::FloatMemWrite          520      0.02%    100.00% # Class of committed instruction
system.cpu0.commit.op_class_0::IprAccess            0      0.00%    100.00% # Class of committed instruction
system.cpu0.commit.op_class_0::InstPrefetch            0      0.00%    100.00% # Class of committed instruction
system.cpu0.commit.op_class_0::total          2976676                       # Class of committed instruction
system.cpu0.commit.bw_lim_events               162416                       # number cycles where commit BW limit reached
system.cpu0.rob.rob_reads                     5490873                       # The number of ROB reads
system.cpu0.rob.rob_writes                    7765730                       # The number of ROB writes
system.cpu0.timesIdled                            416                       # Number of times that the entire CPU went into an idle state and unscheduled itself
system.cpu0.idleCycles                          52755                       # Total number of cycles that the CPU has spent unscheduled due to idling
system.cpu0.committedInsts                    1735750                       # Number of Instructions Simulated
system.cpu0.committedOps                      2976676                       # Number of Ops (including micro ops) Simulated
system.cpu0.cpi                              1.152240                       # CPI: Cycles Per Instruction
system.cpu0.cpi_total                        1.152240                       # CPI: Total CPI of All Threads
system.cpu0.ipc                              0.867875                       # IPC: Instructions Per Cycle
system.cpu0.ipc_total                        0.867875                       # IPC: Total IPC of All Threads
system.cpu0.int_regfile_reads                 5415267                       # number of integer regfile reads
system.cpu0.int_regfile_writes                2974866                       # number of integer regfile writes
system.cpu0.fp_regfile_reads                    73832                       # number of floating regfile reads
system.cpu0.fp_regfile_writes                   39465                       # number of floating regfile writes
system.cpu0.cc_regfile_reads                  1868813                       # number of cc regfile reads
system.cpu0.cc_regfile_writes                 1574477                       # number of cc regfile writes
system.cpu0.misc_regfile_reads                1309277                       # number of misc regfile reads
system.cpu0.dcache.tags.pwrStateResidencyTicks::UNDEFINED   1000000000                       # Cumulative time (in ticks) in various power states
system.cpu0.dcache.tags.replacements             9298                       # number of replacements
system.cpu0.dcache.tags.tagsinuse          960.388499                       # Cycle average of tags in use
system.cpu0.dcache.tags.total_refs             164431                       # Total number of references to valid blocks.
system.cpu0.dcache.tags.sampled_refs             9298                       # Sample count of references to valid blocks.
system.cpu0.dcache.tags.avg_refs            17.684556                       # Average number of references to valid blocks.
system.cpu0.dcache.tags.warmup_cycle           185500                       # Cycle when the warmup percentage was hit.
system.cpu0.dcache.tags.occ_blocks::cpu0.data   960.388499                       # Average occupied blocks per requestor
system.cpu0.dcache.tags.occ_percent::cpu0.data     0.937879                       # Average percentage of cache occupancy
system.cpu0.dcache.tags.occ_percent::total     0.937879                       # Average percentage of cache occupancy
system.cpu0.dcache.tags.occ_task_id_blocks::1024         1024                       # Occupied blocks per task id
system.cpu0.dcache.tags.age_task_id_blocks_1024::0          118                       # Occupied blocks per task id
system.cpu0.dcache.tags.age_task_id_blocks_1024::1          635                       # Occupied blocks per task id
system.cpu0.dcache.tags.age_task_id_blocks_1024::2          271                       # Occupied blocks per task id
system.cpu0.dcache.tags.occ_task_id_percent::1024            1                       # Percentage of cache occupancy per task id
system.cpu0.dcache.tags.tag_accesses          2361394                       # Number of tag accesses
system.cpu0.dcache.tags.data_accesses         2361394                       # Number of data accesses
system.cpu0.dcache.pwrStateResidencyTicks::UNDEFINED   1000000000                       # Cumulative time (in ticks) in various power states
system.cpu0.dcache.ReadReq_hits::cpu0.data       399999                       # number of ReadReq hits
system.cpu0.dcache.ReadReq_hits::total         399999                       # number of ReadReq hits
system.cpu0.dcache.WriteReq_hits::cpu0.data       156101                       # number of WriteReq hits
system.cpu0.dcache.WriteReq_hits::total        156101                       # number of WriteReq hits
system.cpu0.dcache.demand_hits::cpu0.data       556100                       # number of demand (read+write) hits
system.cpu0.dcache.demand_hits::total          556100                       # number of demand (read+write) hits
system.cpu0.dcache.overall_hits::cpu0.data       556100                       # number of overall hits
system.cpu0.dcache.overall_hits::total         556100                       # number of overall hits
system.cpu0.dcache.ReadReq_misses::cpu0.data        29980                       # number of ReadReq misses
system.cpu0.dcache.ReadReq_misses::total        29980                       # number of ReadReq misses
system.cpu0.dcache.WriteReq_misses::cpu0.data         1688                       # number of WriteReq misses
system.cpu0.dcache.WriteReq_misses::total         1688                       # number of WriteReq misses
system.cpu0.dcache.demand_misses::cpu0.data        31668                       # number of demand (read+write) misses
system.cpu0.dcache.demand_misses::total         31668                       # number of demand (read+write) misses
system.cpu0.dcache.overall_misses::cpu0.data        31668                       # number of overall misses
system.cpu0.dcache.overall_misses::total        31668                       # number of overall misses
system.cpu0.dcache.ReadReq_miss_latency::cpu0.data   2101826000                       # number of ReadReq miss cycles
system.cpu0.dcache.ReadReq_miss_latency::total   2101826000                       # number of ReadReq miss cycles
system.cpu0.dcache.WriteReq_miss_latency::cpu0.data    107880500                       # number of WriteReq miss cycles
system.cpu0.dcache.WriteReq_miss_latency::total    107880500                       # number of WriteReq miss cycles
system.cpu0.dcache.demand_miss_latency::cpu0.data   2209706500                       # number of demand (read+write) miss cycles
system.cpu0.dcache.demand_miss_latency::total   2209706500                       # number of demand (read+write) miss cycles
system.cpu0.dcache.overall_miss_latency::cpu0.data   2209706500                       # number of overall miss cycles
system.cpu0.dcache.overall_miss_latency::total   2209706500                       # number of overall miss cycles
system.cpu0.dcache.ReadReq_accesses::cpu0.data       429979                       # number of ReadReq accesses(hits+misses)
system.cpu0.dcache.ReadReq_accesses::total       429979                       # number of ReadReq accesses(hits+misses)
system.cpu0.dcache.WriteReq_accesses::cpu0.data       157789                       # number of WriteReq accesses(hits+misses)
system.cpu0.dcache.WriteReq_accesses::total       157789                       # number of WriteReq accesses(hits+misses)
system.cpu0.dcache.demand_accesses::cpu0.data       587768                       # number of demand (read+write) accesses
system.cpu0.dcache.demand_accesses::total       587768                       # number of demand (read+write) accesses
system.cpu0.dcache.overall_accesses::cpu0.data       587768                       # number of overall (read+write) accesses
system.cpu0.dcache.overall_accesses::total       587768                       # number of overall (read+write) accesses
system.cpu0.dcache.ReadReq_miss_rate::cpu0.data     0.069724                       # miss rate for ReadReq accesses
system.cpu0.dcache.ReadReq_miss_rate::total     0.069724                       # miss rate for ReadReq accesses
system.cpu0.dcache.WriteReq_miss_rate::cpu0.data     0.010698                       # miss rate for WriteReq accesses
system.cpu0.dcache.WriteReq_miss_rate::total     0.010698                       # miss rate for WriteReq accesses
system.cpu0.dcache.demand_miss_rate::cpu0.data     0.053878                       # miss rate for demand accesses
system.cpu0.dcache.demand_miss_rate::total     0.053878                       # miss rate for demand accesses
system.cpu0.dcache.overall_miss_rate::cpu0.data     0.053878                       # miss rate for overall accesses
system.cpu0.dcache.overall_miss_rate::total     0.053878                       # miss rate for overall accesses
system.cpu0.dcache.ReadReq_avg_miss_latency::cpu0.data 70107.605070                       # average ReadReq miss latency
system.cpu0.dcache.ReadReq_avg_miss_latency::total 70107.605070                       # average ReadReq miss latency
system.cpu0.dcache.WriteReq_avg_miss_latency::cpu0.data 63910.248815                       # average WriteReq miss latency
system.cpu0.dcache.WriteReq_avg_miss_latency::total 63910.248815                       # average WriteReq miss latency
system.cpu0.dcache.demand_avg_miss_latency::cpu0.data 69777.267273                       # average overall miss latency
system.cpu0.dcache.demand_avg_miss_latency::total 69777.267273                       # average overall miss latency
system.cpu0.dcache.overall_avg_miss_latency::cpu0.data 69777.267273                       # average overall miss latency
system.cpu0.dcache.overall_avg_miss_latency::total 69777.267273                       # average overall miss latency
system.cpu0.dcache.blocked_cycles::no_mshrs        17094                       # number of cycles access was blocked
system.cpu0.dcache.blocked_cycles::no_targets          207                       # number of cycles access was blocked
system.cpu0.dcache.blocked::no_mshrs              284                       # number of cycles access was blocked
system.cpu0.dcache.blocked::no_targets              2                       # number of cycles access was blocked
system.cpu0.dcache.avg_blocked_cycles::no_mshrs    60.190141                       # average number of cycles each access was blocked
system.cpu0.dcache.avg_blocked_cycles::no_targets   103.500000                       # average number of cycles each access was blocked
system.cpu0.dcache.writebacks::writebacks         1874                       # number of writebacks
system.cpu0.dcache.writebacks::total             1874                       # number of writebacks
system.cpu0.dcache.ReadReq_mshr_hits::cpu0.data        21339                       # number of ReadReq MSHR hits
system.cpu0.dcache.ReadReq_mshr_hits::total        21339                       # number of ReadReq MSHR hits
system.cpu0.dcache.WriteReq_mshr_hits::cpu0.data            7                       # number of WriteReq MSHR hits
system.cpu0.dcache.WriteReq_mshr_hits::total            7                       # number of WriteReq MSHR hits
system.cpu0.dcache.demand_mshr_hits::cpu0.data        21346                       # number of demand (read+write) MSHR hits
system.cpu0.dcache.demand_mshr_hits::total        21346                       # number of demand (read+write) MSHR hits
system.cpu0.dcache.overall_mshr_hits::cpu0.data        21346                       # number of overall MSHR hits
system.cpu0.dcache.overall_mshr_hits::total        21346                       # number of overall MSHR hits
system.cpu0.dcache.ReadReq_mshr_misses::cpu0.data         8641                       # number of ReadReq MSHR misses
system.cpu0.dcache.ReadReq_mshr_misses::total         8641                       # number of ReadReq MSHR misses
system.cpu0.dcache.WriteReq_mshr_misses::cpu0.data         1681                       # number of WriteReq MSHR misses
[...]
system.l2.ReadCleanReq_miss_rate::cpu0.inst     0.943590                       # miss rate for ReadCleanReq accesses
system.l2.ReadCleanReq_miss_rate::total      0.943590                       # miss rate for ReadCleanReq accesses
system.l2.ReadSharedReq_miss_rate::cpu0.data     0.493976                       # miss rate for ReadSharedReq accesses
system.l2.ReadSharedReq_miss_rate::total     0.493976                       # miss rate for ReadSharedReq accesses
system.l2.demand_miss_rate::cpu0.inst        0.943590                       # miss rate for demand accesses
system.l2.demand_miss_rate::cpu0.data        0.506267                       # miss rate for demand accesses
system.l2.demand_miss_rate::total            0.598062                       # miss rate for demand accesses
system.l2.overall_miss_rate::cpu0.inst       0.943590                       # miss rate for overall accesses
system.l2.overall_miss_rate::cpu0.data       0.506267                       # miss rate for overall accesses
system.l2.overall_miss_rate::total           0.598062                       # miss rate for overall accesses
system.l2.ReadExReq_avg_miss_latency::cpu0.data 84974.576271                       # average ReadExReq miss latency
system.l2.ReadExReq_avg_miss_latency::total 84974.576271                       # average ReadExReq miss latency
system.l2.ReadCleanReq_avg_miss_latency::cpu0.inst 84306.521739                       # average ReadCleanReq miss latency
system.l2.ReadCleanReq_avg_miss_latency::total 84306.521739                       # average ReadCleanReq miss latency
system.l2.ReadSharedReq_avg_miss_latency::cpu0.data 84673.111243                       # average ReadSharedReq miss latency
system.l2.ReadSharedReq_avg_miss_latency::total 84673.111243                       # average ReadSharedReq miss latency
system.l2.demand_avg_miss_latency::cpu0.inst 84306.521739                       # average overall miss latency
system.l2.demand_avg_miss_latency::cpu0.data 84701.829925                       # average overall miss latency
system.l2.demand_avg_miss_latency::total 84570.914327                       # average overall miss latency
system.l2.overall_avg_miss_latency::cpu0.inst 84306.521739                       # average overall miss latency
system.l2.overall_avg_miss_latency::cpu0.data 84701.829925                       # average overall miss latency
system.l2.overall_avg_miss_latency::total 84570.914327                       # average overall miss latency
system.l2.blocked_cycles::no_mshrs                  0                       # number of cycles access was blocked
system.l2.blocked_cycles::no_targets                0                       # number of cycles access was blocked
system.l2.blocked::no_mshrs                         0                       # number of cycles access was blocked
system.l2.blocked::no_targets                       0                       # number of cycles access was blocked
system.l2.avg_blocked_cycles::no_mshrs            nan                       # average number of cycles each access was blocked
system.l2.avg_blocked_cycles::no_targets          nan                       # average number of cycles each access was blocked
system.l2.ReadCleanReq_mshr_hits::cpu0.inst            3                       # number of ReadCleanReq MSHR hits
system.l2.ReadCleanReq_mshr_hits::total             3                       # number of ReadCleanReq MSHR hits
system.l2.demand_mshr_hits::cpu0.inst               3                       # number of demand (read+write) MSHR hits
system.l2.demand_mshr_hits::total                   3                       # number of demand (read+write) MSHR hits
system.l2.overall_mshr_hits::cpu0.inst              3                       # number of overall MSHR hits
system.l2.overall_mshr_hits::total                  3                       # number of overall MSHR hits
system.l2.ReadExReq_mshr_misses::cpu0.data          177                       # number of ReadExReq MSHR misses
system.l2.ReadExReq_mshr_misses::total            177                       # number of ReadExReq MSHR misses
system.l2.ReadCleanReq_mshr_misses::cpu0.inst          917                       # number of ReadCleanReq MSHR misses
system.l2.ReadCleanReq_mshr_misses::total          917                       # number of ReadCleanReq MSHR misses
system.l2.ReadSharedReq_mshr_misses::cpu0.data         1681                       # number of ReadSharedReq MSHR misses
system.l2.ReadSharedReq_mshr_misses::total         1681                       # number of ReadSharedReq MSHR misses
system.l2.demand_mshr_misses::cpu0.inst           917                       # number of demand (read+write) MSHR misses
system.l2.demand_mshr_misses::cpu0.data          1858                       # number of demand (read+write) MSHR misses
system.l2.demand_mshr_misses::total              2775                       # number of demand (read+write) MSHR misses
system.l2.overall_mshr_misses::cpu0.inst          917                       # number of overall MSHR misses
system.l2.overall_mshr_misses::cpu0.data         1858                       # number of overall MSHR misses
system.l2.overall_mshr_misses::total             2775                       # number of overall MSHR misses
system.l2.ReadExReq_mshr_miss_latency::cpu0.data     13270500                       # number of ReadExReq MSHR miss cycles
system.l2.ReadExReq_mshr_miss_latency::total     13270500                       # number of ReadExReq MSHR miss cycles
system.l2.ReadCleanReq_mshr_miss_latency::cpu0.inst     68156000                       # number of ReadCleanReq MSHR miss cycles
system.l2.ReadCleanReq_mshr_miss_latency::total     68156000                       # number of ReadCleanReq MSHR miss cycles
system.l2.ReadSharedReq_mshr_miss_latency::cpu0.data    125525500                       # number of ReadSharedReq MSHR miss cycles
system.l2.ReadSharedReq_mshr_miss_latency::total    125525500                       # number of ReadSharedReq MSHR miss cycles
system.l2.demand_mshr_miss_latency::cpu0.inst     68156000                       # number of demand (read+write) MSHR miss cycles
system.l2.demand_mshr_miss_latency::cpu0.data    138796000                       # number of demand (read+write) MSHR miss cycles
system.l2.demand_mshr_miss_latency::total    206952000                       # number of demand (read+write) MSHR miss cycles
system.l2.overall_mshr_miss_latency::cpu0.inst     68156000                       # number of overall MSHR miss cycles
system.l2.overall_mshr_miss_latency::cpu0.data    138796000                       # number of overall MSHR miss cycles
system.l2.overall_mshr_miss_latency::total    206952000                       # number of overall MSHR miss cycles
system.l2.ReadExReq_mshr_miss_rate::cpu0.data     0.662921                       # mshr miss rate for ReadExReq accesses
system.l2.ReadExReq_mshr_miss_rate::total     0.662921                       # mshr miss rate for ReadExReq accesses
system.l2.ReadCleanReq_mshr_miss_rate::cpu0.inst     0.940513                       # mshr miss rate for ReadCleanReq accesses
system.l2.ReadCleanReq_mshr_miss_rate::total     0.940513                       # mshr miss rate for ReadCleanReq accesses
system.l2.ReadSharedReq_mshr_miss_rate::cpu0.data     0.493976                       # mshr miss rate for ReadSharedReq accesses
system.l2.ReadSharedReq_mshr_miss_rate::total     0.493976                       # mshr miss rate for ReadSharedReq accesses
system.l2.demand_mshr_miss_rate::cpu0.inst     0.940513                       # mshr miss rate for demand accesses
system.l2.demand_mshr_miss_rate::cpu0.data     0.506267                       # mshr miss rate for demand accesses
system.l2.demand_mshr_miss_rate::total       0.597417                       # mshr miss rate for demand accesses
system.l2.overall_mshr_miss_rate::cpu0.inst     0.940513                       # mshr miss rate for overall accesses
system.l2.overall_mshr_miss_rate::cpu0.data     0.506267                       # mshr miss rate for overall accesses
system.l2.overall_mshr_miss_rate::total      0.597417                       # mshr miss rate for overall accesses
system.l2.ReadExReq_avg_mshr_miss_latency::cpu0.data 74974.576271                       # average ReadExReq mshr miss latency
system.l2.ReadExReq_avg_mshr_miss_latency::total 74974.576271                       # average ReadExReq mshr miss latency
system.l2.ReadCleanReq_avg_mshr_miss_latency::cpu0.inst 74324.972737                       # average ReadCleanReq mshr miss latency
system.l2.ReadCleanReq_avg_mshr_miss_latency::total 74324.972737                       # average ReadCleanReq mshr miss latency
system.l2.ReadSharedReq_avg_mshr_miss_latency::cpu0.data 74673.111243                       # average ReadSharedReq mshr miss latency
system.l2.ReadSharedReq_avg_mshr_miss_latency::total 74673.111243                       # average ReadSharedReq mshr miss latency
system.l2.demand_avg_mshr_miss_latency::cpu0.inst 74324.972737                       # average overall mshr miss latency
system.l2.demand_avg_mshr_miss_latency::cpu0.data 74701.829925                       # average overall mshr miss latency
system.l2.demand_avg_mshr_miss_latency::total 74577.297297                       # average overall mshr miss latency
system.l2.overall_avg_mshr_miss_latency::cpu0.inst 74324.972737                       # average overall mshr miss latency
system.l2.overall_avg_mshr_miss_latency::cpu0.data 74701.829925                       # average overall mshr miss latency
system.l2.overall_avg_mshr_miss_latency::total 74577.297297                       # average overall mshr miss latency
system.membus.snoop_filter.tot_requests          2775                       # Total number of requests made to the snoop filter.
system.membus.snoop_filter.hit_single_requests            0                       # Number of requests hitting in the snoop filter with a single holder of the requested data.
system.membus.snoop_filter.hit_multi_requests            0                       # Number of requests hitting in the snoop filter with multiple (>1) holders of the requested data.
system.membus.snoop_filter.tot_snoops               0                       # Total number of snoops made to the snoop filter.
system.membus.snoop_filter.hit_single_snoops            0                       # Number of snoops hitting in the snoop filter with a single holder of the requested data.
system.membus.snoop_filter.hit_multi_snoops            0                       # Number of snoops hitting in the snoop filter with multiple (>1) holders of the requested data.
system.membus.pwrStateResidencyTicks::UNDEFINED    273933000                       # Cumulative time (in ticks) in various power states
system.membus.trans_dist::ReadResp               2598                       # Transaction distribution
system.membus.trans_dist::ReadExReq               177                       # Transaction distribution
system.membus.trans_dist::ReadExResp              177                       # Transaction distribution
system.membus.trans_dist::ReadSharedReq          2598                       # Transaction distribution
system.membus.pkt_count_system.l2.mem_side::system.mem_ctrls.port         5550                       # Packet count per connected master and slave (bytes)
system.membus.pkt_count_system.l2.mem_side::total         5550                       # Packet count per connected master and slave (bytes)
system.membus.pkt_count::total                   5550                       # Packet count per connected master and slave (bytes)
system.membus.pkt_size_system.l2.mem_side::system.mem_ctrls.port       177600                       # Cumulative packet size per connected master and slave (bytes)
system.membus.pkt_size_system.l2.mem_side::total       177600                       # Cumulative packet size per connected master and slave (bytes)
system.membus.pkt_size::total                  177600                       # Cumulative packet size per connected master and slave (bytes)
system.membus.snoops                                0                       # Total snoops (count)
system.membus.snoopTraffic                          0                       # Total snoop traffic (bytes)
system.membus.snoop_fanout::samples              2775                       # Request fanout histogram
system.membus.snoop_fanout::mean                    0                       # Request fanout histogram
system.membus.snoop_fanout::stdev                   0                       # Request fanout histogram
system.membus.snoop_fanout::underflows              0      0.00%      0.00% # Request fanout histogram
system.membus.snoop_fanout::0                    2775    100.00%    100.00% # Request fanout histogram
system.membus.snoop_fanout::1                       0      0.00%    100.00% # Request fanout histogram
system.membus.snoop_fanout::overflows               0      0.00%    100.00% # Request fanout histogram
system.membus.snoop_fanout::min_value               0                       # Request fanout histogram
system.membus.snoop_fanout::max_value               0                       # Request fanout histogram
system.membus.snoop_fanout::total                2775                       # Request fanout histogram
system.membus.reqLayer8.occupancy             3435000                       # Layer occupancy (ticks)
system.membus.reqLayer8.utilization               1.3                       # Layer utilization (%)
system.membus.respLayer1.occupancy           14710250                       # Layer occupancy (ticks)
system.membus.respLayer1.utilization              5.4                       # Layer utilization (%)
system.tol2bus.snoop_filter.tot_requests         9007                       # Total number of requests made to the snoop filter.
system.tol2bus.snoop_filter.hit_single_requests         4368                       # Number of requests hitting in the snoop filter with a single holder of the requested data.
system.tol2bus.snoop_filter.hit_multi_requests            9                       # Number of requests hitting in the snoop filter with multiple (>1) holders of the requested data.
system.tol2bus.snoop_filter.tot_snoops              0                       # Total number of snoops made to the snoop filter.
system.tol2bus.snoop_filter.hit_single_snoops            0                       # Number of snoops hitting in the snoop filter with a single holder of the requested data.
system.tol2bus.snoop_filter.hit_multi_snoops            0                       # Number of snoops hitting in the snoop filter with multiple (>1) holders of the requested data.
system.tol2bus.pwrStateResidencyTicks::UNDEFINED    273933000                       # Cumulative time (in ticks) in various power states
system.tol2bus.trans_dist::ReadResp              4381                       # Transaction distribution
system.tol2bus.trans_dist::WritebackDirty          638                       # Transaction distribution
system.tol2bus.trans_dist::WritebackClean          689                       # Transaction distribution
system.tol2bus.trans_dist::CleanEvict            3032                       # Transaction distribution
system.tol2bus.trans_dist::ReadExReq              267                       # Transaction distribution
system.tol2bus.trans_dist::ReadExResp             267                       # Transaction distribution
system.tol2bus.trans_dist::ReadCleanReq           978                       # Transaction distribution
system.tol2bus.trans_dist::ReadSharedReq         3403                       # Transaction distribution
system.tol2bus.pkt_count_system.cpu0.icache.mem_side::system.l2.cpu_side         2642                       # Packet count per connected master and slave (bytes)
system.tol2bus.pkt_count_system.cpu0.dcache.mem_side::system.l2.cpu_side        11010                       # Packet count per connected master and slave (bytes)
system.tol2bus.pkt_count::total                 13652                       # Packet count per connected master and slave (bytes)
system.tol2bus.pkt_size_system.cpu0.icache.mem_side::system.l2.cpu_side       106496                       # Cumulative packet size per connected master and slave (bytes)
system.tol2bus.pkt_size_system.cpu0.dcache.mem_side::system.l2.cpu_side       275712                       # Cumulative packet size per connected master and slave (bytes)
system.tol2bus.pkt_size::total                 382208                       # Cumulative packet size per connected master and slave (bytes)
system.tol2bus.snoops                               3                       # Total snoops (count)
system.tol2bus.snoopTraffic                       192                       # Total snoop traffic (bytes)
system.tol2bus.snoop_fanout::samples             4648                       # Request fanout histogram
system.tol2bus.snoop_fanout::mean            0.003873                       # Request fanout histogram
system.tol2bus.snoop_fanout::stdev           0.062117                       # Request fanout histogram
system.tol2bus.snoop_fanout::underflows             0      0.00%      0.00% # Request fanout histogram
system.tol2bus.snoop_fanout::0                   4630     99.61%     99.61% # Request fanout histogram
system.tol2bus.snoop_fanout::1                     18      0.39%    100.00% # Request fanout histogram
system.tol2bus.snoop_fanout::2                      0      0.00%    100.00% # Request fanout histogram
system.tol2bus.snoop_fanout::3                      0      0.00%    100.00% # Request fanout histogram
system.tol2bus.snoop_fanout::4                      0      0.00%    100.00% # Request fanout histogram
system.tol2bus.snoop_fanout::5                      0      0.00%    100.00% # Request fanout histogram
system.tol2bus.snoop_fanout::6                      0      0.00%    100.00% # Request fanout histogram
system.tol2bus.snoop_fanout::7                      0      0.00%    100.00% # Request fanout histogram
system.tol2bus.snoop_fanout::8                      0      0.00%    100.00% # Request fanout histogram
system.tol2bus.snoop_fanout::9                      0      0.00%    100.00% # Request fanout histogram
system.tol2bus.snoop_fanout::10                     0      0.00%    100.00% # Request fanout histogram
system.tol2bus.snoop_fanout::11                     0      0.00%    100.00% # Request fanout histogram
system.tol2bus.snoop_fanout::12                     0      0.00%    100.00% # Request fanout histogram
system.tol2bus.snoop_fanout::13                     0      0.00%    100.00% # Request fanout histogram
system.tol2bus.snoop_fanout::14                     0      0.00%    100.00% # Request fanout histogram
system.tol2bus.snoop_fanout::15                     0      0.00%    100.00% # Request fanout histogram
system.tol2bus.snoop_fanout::16                     0      0.00%    100.00% # Request fanout histogram
system.tol2bus.snoop_fanout::overflows              0      0.00%    100.00% # Request fanout histogram
system.tol2bus.snoop_fanout::min_value              0                       # Request fanout histogram
system.tol2bus.snoop_fanout::max_value              1                       # Request fanout histogram
system.tol2bus.snoop_fanout::total               4648                       # Request fanout histogram
system.tol2bus.reqLayer0.occupancy            5830500                       # Layer occupancy (ticks)
system.tol2bus.reqLayer0.utilization              2.1                       # Layer utilization (%)
system.tol2bus.respLayer0.occupancy           1468996                       # Layer occupancy (ticks)
system.tol2bus.respLayer0.utilization             0.5                       # Layer utilization (%)
system.tol2bus.respLayer1.occupancy           5505000                       # Layer occupancy (ticks)
system.tol2bus.respLayer1.utilization             2.0                       # Layer utilization (%)

---------- End Simulation Statistics   ----------
