
---------- Begin Simulation Statistics ----------
sim_seconds                                  0.015267                       # Number of seconds simulated
sim_ticks                                 15267344125                       # Number of ticks simulated
final_tick                               3374083051625                       # Number of ticks from beginning of simulation (restored from checkpoints and never reset)
sim_freq                                 1000000000000                       # Frequency of simulated ticks
host_inst_rate                               54366647                       # Simulator instruction rate (inst/s)
host_op_rate                                101036325                       # Simulator op (including micro ops) rate (op/s)
host_tick_rate                              143172059                       # Simulator tick rate (ticks/s)
host_mem_usage                                3428912                       # Number of bytes of host memory used
host_seconds                                   106.64                       # Real time elapsed on the host
sim_insts                                  5797459086                       # Number of instructions simulated
sim_ops                                   10774142778                       # Number of ops (including micro ops) simulated
system.voltage_domain.voltage                       1                       # Voltage in Volts
system.clk_domain.clock                          1000                       # Clock period in ticks
system.mem_ctrls.pwrStateResidencyTicks::UNDEFINED  15267344125                       # Cumulative time (in ticks) in various power states
system.mem_ctrls.bytes_read::cpu0.data         424128                       # Number of bytes read from this memory
system.mem_ctrls.bytes_read::total             424128                       # Number of bytes read from this memory
system.mem_ctrls.bytes_written::writebacks       219904                       # Number of bytes written to this memory
system.mem_ctrls.bytes_written::total          219904                       # Number of bytes written to this memory
system.mem_ctrls.num_reads::cpu0.data            6627                       # Number of read requests responded to by this memory
system.mem_ctrls.num_reads::total                6627                       # Number of read requests responded to by this memory
system.mem_ctrls.num_writes::writebacks          3436                       # Number of write requests responded to by this memory
system.mem_ctrls.num_writes::total               3436                       # Number of write requests responded to by this memory
system.mem_ctrls.bw_read::cpu0.data          27780077                       # Total read bandwidth from this memory (bytes/s)
system.mem_ctrls.bw_read::total              27780077                       # Total read bandwidth from this memory (bytes/s)
system.mem_ctrls.bw_write::writebacks        14403553                       # Write bandwidth from this memory (bytes/s)
system.mem_ctrls.bw_write::total             14403553                       # Write bandwidth from this memory (bytes/s)
system.mem_ctrls.bw_total::writebacks        14403553                       # Total bandwidth to/from this memory (bytes/s)
system.mem_ctrls.bw_total::cpu0.data         27780077                       # Total bandwidth to/from this memory (bytes/s)
system.mem_ctrls.bw_total::total             42183630                       # Total bandwidth to/from this memory (bytes/s)
system.mem_ctrls.readReqs                        6626                       # Number of read requests accepted
system.mem_ctrls.writeReqs                       3436                       # Number of write requests accepted
system.mem_ctrls.readBursts                      6626                       # Number of DRAM read bursts, including those serviced by the write queue
system.mem_ctrls.writeBursts                     3436                       # Number of DRAM write bursts, including those merged in the write queue
system.mem_ctrls.bytesReadDRAM                 407104                       # Total number of bytes read from DRAM
system.mem_ctrls.bytesReadWrQ                   17024                       # Total number of bytes read from write queue
system.mem_ctrls.bytesWritten                  219392                       # Total number of bytes written to DRAM
system.mem_ctrls.bytesReadSys                  424064                       # Total read bytes from the system interface side
system.mem_ctrls.bytesWrittenSys               219904                       # Total written bytes from the system interface side
system.mem_ctrls.servicedByWrQ                    266                       # Number of DRAM read bursts serviced by the write queue
system.mem_ctrls.mergedWrBursts                     0                       # Number of DRAM write bursts merged with an existing one
system.mem_ctrls.neitherReadNorWriteReqs            0                       # Number of requests that are neither read nor write
system.mem_ctrls.perBankRdBursts::0               854                       # Per bank write bursts
system.mem_ctrls.perBankRdBursts::1               587                       # Per bank write bursts
system.mem_ctrls.perBankRdBursts::2               528                       # Per bank write bursts
system.mem_ctrls.perBankRdBursts::3               574                       # Per bank write bursts
system.mem_ctrls.perBankRdBursts::4               607                       # Per bank write bursts
system.mem_ctrls.perBankRdBursts::5               400                       # Per bank write bursts
system.mem_ctrls.perBankRdBursts::6               192                       # Per bank write bursts
system.mem_ctrls.perBankRdBursts::7               139                       # Per bank write bursts
system.mem_ctrls.perBankRdBursts::8                51                       # Per bank write bursts
system.mem_ctrls.perBankRdBursts::9                25                       # Per bank write bursts
system.mem_ctrls.perBankRdBursts::10               42                       # Per bank write bursts
system.mem_ctrls.perBankRdBursts::11              104                       # Per bank write bursts
system.mem_ctrls.perBankRdBursts::12              557                       # Per bank write bursts
system.mem_ctrls.perBankRdBursts::13              643                       # Per bank write bursts
system.mem_ctrls.perBankRdBursts::14              497                       # Per bank write bursts
system.mem_ctrls.perBankRdBursts::15              561                       # Per bank write bursts
system.mem_ctrls.perBankWrBursts::0               598                       # Per bank write bursts
system.mem_ctrls.perBankWrBursts::1               359                       # Per bank write bursts
system.mem_ctrls.perBankWrBursts::2               305                       # Per bank write bursts
system.mem_ctrls.perBankWrBursts::3               282                       # Per bank write bursts
system.mem_ctrls.perBankWrBursts::4               392                       # Per bank write bursts
system.mem_ctrls.perBankWrBursts::5               286                       # Per bank write bursts
system.mem_ctrls.perBankWrBursts::6               125                       # Per bank write bursts
system.mem_ctrls.perBankWrBursts::7                32                       # Per bank write bursts
system.mem_ctrls.perBankWrBursts::8                10                       # Per bank write bursts
system.mem_ctrls.perBankWrBursts::9                 6                       # Per bank write bursts
system.mem_ctrls.perBankWrBursts::10                9                       # Per bank write bursts
system.mem_ctrls.perBankWrBursts::11               12                       # Per bank write bursts
system.mem_ctrls.perBankWrBursts::12              199                       # Per bank write bursts
system.mem_ctrls.perBankWrBursts::13              332                       # Per bank write bursts
system.mem_ctrls.perBankWrBursts::14              262                       # Per bank write bursts
system.mem_ctrls.perBankWrBursts::15              219                       # Per bank write bursts
system.mem_ctrls.numRdRetry                         0                       # Number of times read queue was full causing retry
system.mem_ctrls.numWrRetry                         0                       # Number of times write queue was full causing retry
system.mem_ctrls.totGap                   15266885000                       # Total gap between requests
system.mem_ctrls.readPktSize::0                     0                       # Read request sizes (log2)
system.mem_ctrls.readPktSize::1                     0                       # Read request sizes (log2)
system.mem_ctrls.readPktSize::2                     0                       # Read request sizes (log2)
system.mem_ctrls.readPktSize::3                     0                       # Read request sizes (log2)
system.mem_ctrls.readPktSize::4                     0                       # Read request sizes (log2)
system.mem_ctrls.readPktSize::5                     0                       # Read request sizes (log2)
system.mem_ctrls.readPktSize::6                  6626                       # Read request sizes (log2)
system.mem_ctrls.writePktSize::0                    0                       # Write request sizes (log2)
system.mem_ctrls.writePktSize::1                    0                       # Write request sizes (log2)
system.mem_ctrls.writePktSize::2                    0                       # Write request sizes (log2)
system.mem_ctrls.writePktSize::3                    0                       # Write request sizes (log2)
system.mem_ctrls.writePktSize::4                    0                       # Write request sizes (log2)
system.mem_ctrls.writePktSize::5                    0                       # Write request sizes (log2)
system.mem_ctrls.writePktSize::6                 3436                       # Write request sizes (log2)
system.mem_ctrls.rdQLenPdf::0                    5555                       # What read queue length does an incoming req see
system.mem_ctrls.rdQLenPdf::1                     734                       # What read queue length does an incoming req see
system.mem_ctrls.rdQLenPdf::2                      66                       # What read queue length does an incoming req see
system.mem_ctrls.rdQLenPdf::3                       5                       # What read queue length does an incoming req see
system.mem_ctrls.rdQLenPdf::4                       0                       # What read queue length does an incoming req see
system.mem_ctrls.rdQLenPdf::5                       0                       # What read queue length does an incoming req see
system.mem_ctrls.rdQLenPdf::6                       0                       # What read queue length does an incoming req see
system.mem_ctrls.rdQLenPdf::7                       0                       # What read queue length does an incoming req see
system.mem_ctrls.rdQLenPdf::8                       0                       # What read queue length does an incoming req see
system.mem_ctrls.rdQLenPdf::9                       0                       # What read queue length does an incoming req see
system.mem_ctrls.rdQLenPdf::10                      0                       # What read queue length does an incoming req see
system.mem_ctrls.rdQLenPdf::11                      0                       # What read queue length does an incoming req see
system.mem_ctrls.rdQLenPdf::12                      0                       # What read queue length does an incoming req see
system.mem_ctrls.rdQLenPdf::13                      0                       # What read queue length does an incoming req see
system.mem_ctrls.rdQLenPdf::14                      0                       # What read queue length does an incoming req see
system.mem_ctrls.rdQLenPdf::15                      0                       # What read queue length does an incoming req see
system.mem_ctrls.rdQLenPdf::16                      0                       # What read queue length does an incoming req see
system.mem_ctrls.rdQLenPdf::17                      0                       # What read queue length does an incoming req see
system.mem_ctrls.rdQLenPdf::18                      0                       # What read queue length does an incoming req see
system.mem_ctrls.rdQLenPdf::19                      0                       # What read queue length does an incoming req see
system.mem_ctrls.rdQLenPdf::20                      0                       # What read queue length does an incoming req see
system.mem_ctrls.rdQLenPdf::21                      0                       # What read queue length does an incoming req see
system.mem_ctrls.rdQLenPdf::22                      0                       # What read queue length does an incoming req see
system.mem_ctrls.rdQLenPdf::23                      0                       # What read queue length does an incoming req see
system.mem_ctrls.rdQLenPdf::24                      0                       # What read queue length does an incoming req see
system.mem_ctrls.rdQLenPdf::25                      0                       # What read queue length does an incoming req see
system.mem_ctrls.rdQLenPdf::26                      0                       # What read queue length does an incoming req see
system.mem_ctrls.rdQLenPdf::27                      0                       # What read queue length does an incoming req see
system.mem_ctrls.rdQLenPdf::28                      0                       # What read queue length does an incoming req see
system.mem_ctrls.rdQLenPdf::29                      0                       # What read queue length does an incoming req see
system.mem_ctrls.rdQLenPdf::30                      0                       # What read queue length does an incoming req see
system.mem_ctrls.rdQLenPdf::31                      0                       # What read queue length does an incoming req see
system.mem_ctrls.wrQLenPdf::0                       0                       # What write queue length does an incoming req see
system.mem_ctrls.wrQLenPdf::1                       0                       # What write queue length does an incoming req see
system.mem_ctrls.wrQLenPdf::2                       0                       # What write queue length does an incoming req see
system.mem_ctrls.wrQLenPdf::3                       0                       # What write queue length does an incoming req see
system.mem_ctrls.wrQLenPdf::4                       0                       # What write queue length does an incoming req see
system.mem_ctrls.wrQLenPdf::5                       0                       # What write queue length does an incoming req see
system.mem_ctrls.wrQLenPdf::6                       0                       # What write queue length does an incoming req see
system.mem_ctrls.wrQLenPdf::7                       0                       # What write queue length does an incoming req see
system.mem_ctrls.wrQLenPdf::8                       0                       # What write queue length does an incoming req see
system.mem_ctrls.wrQLenPdf::9                       0                       # What write queue length does an incoming req see
system.mem_ctrls.wrQLenPdf::10                      0                       # What write queue length does an incoming req see
system.mem_ctrls.wrQLenPdf::11                      0                       # What write queue length does an incoming req see
system.mem_ctrls.wrQLenPdf::12                      0                       # What write queue length does an incoming req see
system.mem_ctrls.wrQLenPdf::13                      0                       # What write queue length does an incoming req see
system.mem_ctrls.wrQLenPdf::14                      0                       # What write queue length does an incoming req see
system.mem_ctrls.wrQLenPdf::15                    111                       # What write queue length does an incoming req see
system.mem_ctrls.wrQLenPdf::16                    114                       # What write queue length does an incoming req see
system.mem_ctrls.wrQLenPdf::17                    191                       # What write queue length does an incoming req see
system.mem_ctrls.wrQLenPdf::18                    200                       # What write queue length does an incoming req see
system.mem_ctrls.wrQLenPdf::19                    200                       # What write queue length does an incoming req see
system.mem_ctrls.wrQLenPdf::20                    202                       # What write queue length does an incoming req see
system.mem_ctrls.wrQLenPdf::21                    201                       # What write queue length does an incoming req see
system.mem_ctrls.wrQLenPdf::22                    202                       # What write queue length does an incoming req see
system.mem_ctrls.wrQLenPdf::23                    202                       # What write queue length does an incoming req see
system.mem_ctrls.wrQLenPdf::24                    200                       # What write queue length does an incoming req see
system.mem_ctrls.wrQLenPdf::25                    200                       # What write queue length does an incoming req see
system.mem_ctrls.wrQLenPdf::26                    199                       # What write queue length does an incoming req see
system.mem_ctrls.wrQLenPdf::27                    202                       # What write queue length does an incoming req see
system.mem_ctrls.wrQLenPdf::28                    203                       # What write queue length does an incoming req see
system.mem_ctrls.wrQLenPdf::29                    206                       # What write queue length does an incoming req see
system.mem_ctrls.wrQLenPdf::30                    203                       # What write queue length does an incoming req see
system.mem_ctrls.wrQLenPdf::31                    199                       # What write queue length does an incoming req see
system.mem_ctrls.wrQLenPdf::32                    199                       # What write queue length does an incoming req see
system.mem_ctrls.wrQLenPdf::33                      1                       # What write queue length does an incoming req see
system.mem_ctrls.wrQLenPdf::34                      1                       # What write queue length does an incoming req see
system.mem_ctrls.wrQLenPdf::35                      0                       # What write queue length does an incoming req see
system.mem_ctrls.wrQLenPdf::36                      0                       # What write queue length does an incoming req see
system.mem_ctrls.wrQLenPdf::37                      0                       # What write queue length does an incoming req see
system.mem_ctrls.wrQLenPdf::38                      0                       # What write queue length does an incoming req see
system.mem_ctrls.wrQLenPdf::39                      0                       # What write queue length does an incoming req see
system.mem_ctrls.wrQLenPdf::40                      0                       # What write queue length does an incoming req see
system.mem_ctrls.wrQLenPdf::41                      0                       # What write queue length does an incoming req see
system.mem_ctrls.wrQLenPdf::42                      0                       # What write queue length does an incoming req see
system.mem_ctrls.wrQLenPdf::43                      0                       # What write queue length does an incoming req see
system.mem_ctrls.wrQLenPdf::44                      0                       # What write queue length does an incoming req see
system.mem_ctrls.wrQLenPdf::45                      0                       # What write queue length does an incoming req see
system.mem_ctrls.wrQLenPdf::46                      0                       # What write queue length does an incoming req see
system.mem_ctrls.wrQLenPdf::47                      0                       # What write queue length does an incoming req see
system.mem_ctrls.wrQLenPdf::48                      0                       # What write queue length does an incoming req see
system.mem_ctrls.wrQLenPdf::49                      0                       # What write queue length does an incoming req see
system.mem_ctrls.wrQLenPdf::50                      0                       # What write queue length does an incoming req see
system.mem_ctrls.wrQLenPdf::51                      0                       # What write queue length does an incoming req see
system.mem_ctrls.wrQLenPdf::52                      0                       # What write queue length does an incoming req see
system.mem_ctrls.wrQLenPdf::53                      0                       # What write queue length does an incoming req see
system.mem_ctrls.wrQLenPdf::54                      0                       # What write queue length does an incoming req see
system.mem_ctrls.wrQLenPdf::55                      0                       # What write queue length does an incoming req see
system.mem_ctrls.wrQLenPdf::56                      0                       # What write queue length does an incoming req see
system.mem_ctrls.wrQLenPdf::57                      0                       # What write queue length does an incoming req see
system.mem_ctrls.wrQLenPdf::58                      0                       # What write queue length does an incoming req see
system.mem_ctrls.wrQLenPdf::59                      0                       # What write queue length does an incoming req see
system.mem_ctrls.wrQLenPdf::60                      0                       # What write queue length does an incoming req see
system.mem_ctrls.wrQLenPdf::61                      0                       # What write queue length does an incoming req see
system.mem_ctrls.wrQLenPdf::62                      0                       # What write queue length does an incoming req see
system.mem_ctrls.wrQLenPdf::63                      0                       # What write queue length does an incoming req see
system.mem_ctrls.bytesPerActivate::samples         6807                       # Bytes accessed per row activation
system.mem_ctrls.bytesPerActivate::mean     91.999412                       # Bytes accessed per row activation
system.mem_ctrls.bytesPerActivate::gmean    81.723170                       # Bytes accessed per row activation
system.mem_ctrls.bytesPerActivate::stdev    58.287018                       # Bytes accessed per row activation
system.mem_ctrls.bytesPerActivate::64-127         4950     72.72%     72.72% # Bytes accessed per row activation
system.mem_ctrls.bytesPerActivate::128-191         1231     18.08%     90.80% # Bytes accessed per row activation
system.mem_ctrls.bytesPerActivate::192-255          351      5.16%     95.96% # Bytes accessed per row activation
system.mem_ctrls.bytesPerActivate::256-319          148      2.17%     98.13% # Bytes accessed per row activation
system.mem_ctrls.bytesPerActivate::320-383           71      1.04%     99.18% # Bytes accessed per row activation
system.mem_ctrls.bytesPerActivate::384-447           32      0.47%     99.65% # Bytes accessed per row activation
system.mem_ctrls.bytesPerActivate::448-511           16      0.24%     99.88% # Bytes accessed per row activation
system.mem_ctrls.bytesPerActivate::512-575            4      0.06%     99.94% # Bytes accessed per row activation
system.mem_ctrls.bytesPerActivate::576-639            3      0.04%     99.99% # Bytes accessed per row activation
system.mem_ctrls.bytesPerActivate::640-703            1      0.01%    100.00% # Bytes accessed per row activation
system.mem_ctrls.bytesPerActivate::total         6807                       # Bytes accessed per row activation
system.mem_ctrls.rdPerTurnAround::samples          199                       # Reads before turning the bus around for writes
system.mem_ctrls.rdPerTurnAround::mean      31.914573                       # Reads before turning the bus around for writes
system.mem_ctrls.rdPerTurnAround::gmean     31.274539                       # Reads before turning the bus around for writes
system.mem_ctrls.rdPerTurnAround::stdev      6.688430                       # Reads before turning the bus around for writes
system.mem_ctrls.rdPerTurnAround::16-19             4      2.01%      2.01% # Reads before turning the bus around for writes
system.mem_ctrls.rdPerTurnAround::20-23             8      4.02%      6.03% # Reads before turning the bus around for writes
system.mem_ctrls.rdPerTurnAround::24-27            31     15.58%     21.61% # Reads before turning the bus around for writes
system.mem_ctrls.rdPerTurnAround::28-31            66     33.17%     54.77% # Reads before turning the bus around for writes
system.mem_ctrls.rdPerTurnAround::32-35            46     23.12%     77.89% # Reads before turning the bus around for writes
system.mem_ctrls.rdPerTurnAround::36-39            21     10.55%     88.44% # Reads before turning the bus around for writes
system.mem_ctrls.rdPerTurnAround::40-43            10      5.03%     93.47% # Reads before turning the bus around for writes
system.mem_ctrls.rdPerTurnAround::44-47             9      4.52%     97.99% # Reads before turning the bus around for writes
system.mem_ctrls.rdPerTurnAround::48-51             1      0.50%     98.49% # Reads before turning the bus around for writes
system.mem_ctrls.rdPerTurnAround::52-55             1      0.50%     98.99% # Reads before turning the bus around for writes
system.mem_ctrls.rdPerTurnAround::56-59             1      0.50%     99.50% # Reads before turning the bus around for writes
system.mem_ctrls.rdPerTurnAround::64-67             1      0.50%    100.00% # Reads before turning the bus around for writes
system.mem_ctrls.rdPerTurnAround::total           199                       # Reads before turning the bus around for writes
system.mem_ctrls.wrPerTurnAround::samples          199                       # Writes before turning the bus around for reads
system.mem_ctrls.wrPerTurnAround::mean      17.226131                       # Writes before turning the bus around for reads
system.mem_ctrls.wrPerTurnAround::gmean     17.188812                       # Writes before turning the bus around for reads
system.mem_ctrls.wrPerTurnAround::stdev      1.138899                       # Writes before turning the bus around for reads
system.mem_ctrls.wrPerTurnAround::16               86     43.22%     43.22% # Writes before turning the bus around for reads
system.mem_ctrls.wrPerTurnAround::17                3      1.51%     44.72% # Writes before turning the bus around for reads
system.mem_ctrls.wrPerTurnAround::18               93     46.73%     91.46% # Writes before turning the bus around for reads
system.mem_ctrls.wrPerTurnAround::19               13      6.53%     97.99% # Writes before turning the bus around for reads
system.mem_ctrls.wrPerTurnAround::20                4      2.01%    100.00% # Writes before turning the bus around for reads
system.mem_ctrls.wrPerTurnAround::total           199                       # Writes before turning the bus around for reads
system.mem_ctrls.totQLat                    595538000                       # Total ticks spent queuing
system.mem_ctrls.totMemAccLat               714806750                       # Total ticks spent from burst creation until serviced by the DRAM
system.mem_ctrls.totBusLat                   31805000                       # Total ticks spent in databus transfers
system.mem_ctrls.avgQLat                     93638.05                       # Average queueing delay per DRAM burst
system.mem_ctrls.avgBusLat                    5000.79                       # Average bus latency per DRAM burst
system.mem_ctrls.avgMemAccLat               112391.00                       # Average memory access latency per DRAM burst
system.mem_ctrls.avgRdBW                        26.67                       # Average DRAM read bandwidth in MiByte/s
system.mem_ctrls.avgWrBW                        14.37                       # Average achieved write bandwidth in MiByte/s
system.mem_ctrls.avgRdBWSys                     27.78                       # Average system read bandwidth in MiByte/s
system.mem_ctrls.avgWrBWSys                     14.40                       # Average system write bandwidth in MiByte/s
system.mem_ctrls.peakBW                      12800.00                       # Theoretical peak bandwidth in MiByte/s
system.mem_ctrls.busUtil                         0.32                       # Data bus utilization in percentage
system.mem_ctrls.busUtilRead                     0.21                       # Data bus utilization in percentage for reads
system.mem_ctrls.busUtilWrite                    0.11                       # Data bus utilization in percentage for writes
system.mem_ctrls.avgRdQLen                       1.13                       # Average read queue length when enqueuing
system.mem_ctrls.avgWrQLen                      24.90                       # Average write queue length when enqueuing
system.mem_ctrls.readRowHits                     1312                       # Number of row buffer hits during reads
system.mem_ctrls.writeRowHits                    1666                       # Number of row buffer hits during writes
system.mem_ctrls.readRowHitRate                 20.63                       # Row buffer hit rate for reads
system.mem_ctrls.writeRowHitRate                48.49                       # Row buffer hit rate for writes
system.mem_ctrls.avgGap                    1517281.36                       # Average gap between requests
system.mem_ctrls.pageHitRate                    30.40                       # Row buffer hit rate, read and write combined
system.mem_ctrls_0.actEnergy                 30173640                       # Energy for activate commands per rank (pJ)
system.mem_ctrls_0.preEnergy                 16030080                       # Energy for precharge commands per rank (pJ)
system.mem_ctrls_0.readEnergy                27710340                       # Energy for read commands per rank (pJ)
system.mem_ctrls_0.writeEnergy               12418380                       # Energy for write commands per rank (pJ)
system.mem_ctrls_0.refreshEnergy         1193016240.000000                       # Energy for refresh commands per rank (pJ)
system.mem_ctrls_0.actBackEnergy            470118900                       # Energy for active background per rank (pJ)
system.mem_ctrls_0.preBackEnergy             59678400                       # Energy for precharge background per rank (pJ)
system.mem_ctrls_0.actPowerDownEnergy      2752258680                       # Energy for active power-down per rank (pJ)
system.mem_ctrls_0.prePowerDownEnergy      1904627040                       # Energy for precharge power-down per rank (pJ)
system.mem_ctrls_0.selfRefreshEnergy        963571560                       # Energy for self refresh per rank (pJ)
system.mem_ctrls_0.totalEnergy             7431434700                       # Total energy per rank (pJ)
system.mem_ctrls_0.averagePower            486.753599                       # Core power per rank (mW)
system.mem_ctrls_0.totalIdleTime          14076062750                       # Total Idle time Per DRAM Rank
system.mem_ctrls_0.memoryStateTime::IDLE    113304000                       # Time in different power states
system.mem_ctrls_0.memoryStateTime::REF     507372500                       # Time in different power states
system.mem_ctrls_0.memoryStateTime::SREF   3081194750                       # Time in different power states
system.mem_ctrls_0.memoryStateTime::PRE_PDN   4959968500                       # Time in different power states
system.mem_ctrls_0.memoryStateTime::ACT     569860500                       # Time in different power states
system.mem_ctrls_0.memoryStateTime::ACT_PDN   6035643875                       # Time in different power states
system.mem_ctrls_1.actEnergy                 18456900                       # Energy for activate commands per rank (pJ)
system.mem_ctrls_1.preEnergy                  9802485                       # Energy for precharge commands per rank (pJ)
system.mem_ctrls_1.readEnergy                17707200                       # Energy for read commands per rank (pJ)
system.mem_ctrls_1.writeEnergy                5475780                       # Energy for write commands per rank (pJ)
system.mem_ctrls_1.refreshEnergy         1001863200.000000                       # Energy for refresh commands per rank (pJ)
system.mem_ctrls_1.actBackEnergy            354920190                       # Energy for active background per rank (pJ)
system.mem_ctrls_1.preBackEnergy             55320480                       # Energy for precharge background per rank (pJ)
system.mem_ctrls_1.actPowerDownEnergy      2085167730                       # Energy for active power-down per rank (pJ)
system.mem_ctrls_1.prePowerDownEnergy      1663121280                       # Energy for precharge power-down per rank (pJ)
system.mem_ctrls_1.selfRefreshEnergy       1523971800                       # Energy for self refresh per rank (pJ)
system.mem_ctrls_1.totalEnergy             6737189775                       # Total energy per rank (pJ)
system.mem_ctrls_1.averagePower            441.281058                       # Core power per rank (mW)
system.mem_ctrls_1.totalIdleTime          14340663000                       # Total Idle time Per DRAM Rank
system.mem_ctrls_1.memoryStateTime::IDLE    109452000                       # Time in different power states
system.mem_ctrls_1.memoryStateTime::REF     426559750                       # Time in different power states
system.mem_ctrls_1.memoryStateTime::SREF   5437909250                       # Time in different power states
system.mem_ctrls_1.memoryStateTime::PRE_PDN   4331028500                       # Time in different power states
system.mem_ctrls_1.memoryStateTime::ACT     389671750                       # Time in different power states
system.mem_ctrls_1.memoryStateTime::ACT_PDN   4572722875                       # Time in different power states
system.pwrStateResidencyTicks::UNDEFINED  15267344125                       # Cumulative time (in ticks) in various power states
system.cpu0.branchPred.lookups                6045468                       # Number of BP lookups
system.cpu0.branchPred.condPredicted          6045468                       # Number of conditional branches predicted
system.cpu0.branchPred.condIncorrect           251240                       # Number of conditional branches incorrect
system.cpu0.branchPred.BTBLookups             4817964                       # Number of BTB lookups
system.cpu0.branchPred.BTBHits                      0                       # Number of BTB hits
system.cpu0.branchPred.BTBCorrect                   0                       # Number of correct BTB predictions (this stat may not work properly.
system.cpu0.branchPred.BTBHitPct             0.000000                       # BTB Hit Percentage
system.cpu0.branchPred.usedRAS                 167988                       # Number of times the RAS was used to get a target.
system.cpu0.branchPred.RASInCorrect             23462                       # Number of incorrect RAS predictions.
system.cpu0.branchPred.indirectLookups        4817964                       # Number of indirect predictor lookups.
system.cpu0.branchPred.indirectHits           2588746                       # Number of indirect target hits.
system.cpu0.branchPred.indirectMisses         2229218                       # Number of indirect misses.
system.cpu0.branchPredindirectMispredicted        92374                       # Number of mispredicted indirect branches.
system.cpu_voltage_domain.voltage                   1                       # Voltage in Volts
system.cpu_clk_domain.clock                       500                       # Clock period in ticks
system.cpu0.dtb.walker.pwrStateResidencyTicks::UNDEFINED  15267344125                       # Cumulative time (in ticks) in various power states
system.cpu0.dtb.rdAccesses                    3163651                       # TLB accesses on read requests
system.cpu0.dtb.wrAccesses                     221791                       # TLB accesses on write requests
system.cpu0.dtb.rdMisses                       729397                       # TLB misses on read requests
system.cpu0.dtb.wrMisses                         4574                       # TLB misses on write requests
system.cpu0.apic_clk_domain.clock                8000                       # Clock period in ticks
system.cpu0.interrupts.pwrStateResidencyTicks::UNDEFINED  15267344125                       # Cumulative time (in ticks) in various power states
system.cpu0.itb.walker.pwrStateResidencyTicks::UNDEFINED  15267344125                       # Cumulative time (in ticks) in various power states
system.cpu0.itb.rdAccesses                          0                       # TLB accesses on read requests
system.cpu0.itb.wrAccesses                    5112849                       # TLB accesses on write requests
system.cpu0.itb.rdMisses                            0                       # TLB misses on read requests
system.cpu0.itb.wrMisses                        16470                       # TLB misses on write requests
system.cpu0.workload.numSyscalls                    0                       # Number of system calls
system.cpu0.pwrStateResidencyTicks::ON    15267344125                       # Cumulative time (in ticks) in various power states
system.cpu0.numCycles                        30534688                       # number of cpu cycles simulated
system.cpu0.numWorkItemsStarted                     0                       # number of work items this cpu started
system.cpu0.numWorkItemsCompleted                   0                       # number of work items this cpu completed
system.cpu0.fetch.icacheStallCycles           5223179                       # Number of cycles fetch is stalled on an Icache miss
system.cpu0.fetch.Insts                      17594012                       # Number of instructions fetch has processed
system.cpu0.fetch.Branches                    6045468                       # Number of branches that fetch encountered
system.cpu0.fetch.predictedBranches           2756734                       # Number of branches that fetch has predicted taken
system.cpu0.fetch.Cycles                     24925046                       # Number of cycles fetch has run and was not squashing or blocked
system.cpu0.fetch.SquashCycles                 512650                       # Number of cycles fetch has spent squashing
system.cpu0.fetch.TlbCycles                       968                       # Number of cycles fetch has spent waiting for tlb
system.cpu0.fetch.MiscStallCycles                3587                       # Number of cycles fetch has spent waiting on interrupts, or bad addresses, or out of MSHRs
system.cpu0.fetch.PendingTrapStallCycles       122015                       # Number of stall cycles due to pending traps
system.cpu0.fetch.PendingQuiesceStallCycles           17                       # Number of stall cycles due to pending quiesce instructions
system.cpu0.fetch.CacheLines                  5096379                       # Number of cache lines fetched
system.cpu0.fetch.IcacheSquashes                44079                       # Number of outstanding Icache misses that were squashed
system.cpu0.fetch.ItlbSquashes                     13                       # Number of outstanding ITLB misses that were squashed
system.cpu0.fetch.rateDist::samples          30531137                       # Number of instructions fetched each cycle (Total)
system.cpu0.fetch.rateDist::mean             1.158379                       # Number of instructions fetched each cycle (Total)
system.cpu0.fetch.rateDist::stdev            2.517879                       # Number of instructions fetched each cycle (Total)
system.cpu0.fetch.rateDist::underflows              0      0.00%      0.00% # Number of instructions fetched each cycle (Total)
system.cpu0.fetch.rateDist::0                23642525     77.44%     77.44% # Number of instructions fetched each cycle (Total)
system.cpu0.fetch.rateDist::1                   89040      0.29%     77.73% # Number of instructions fetched each cycle (Total)
system.cpu0.fetch.rateDist::2                 2535180      8.30%     86.03% # Number of instructions fetched each cycle (Total)
system.cpu0.fetch.rateDist::3                  104987      0.34%     86.38% # Number of instructions fetched each cycle (Total)
system.cpu0.fetch.rateDist::4                  496196      1.63%     88.00% # Number of instructions fetched each cycle (Total)
system.cpu0.fetch.rateDist::5                  207303      0.68%     88.68% # Number of instructions fetched each cycle (Total)
system.cpu0.fetch.rateDist::6                  348331      1.14%     89.82% # Number of instructions fetched each cycle (Total)
system.cpu0.fetch.rateDist::7                   79631      0.26%     90.08% # Number of instructions fetched each cycle (Total)
system.cpu0.fetch.rateDist::8                 3027944      9.92%    100.00% # Number of instructions fetched each cycle (Total)
system.cpu0.fetch.rateDist::overflows               0      0.00%    100.00% # Number of instructions fetched each cycle (Total)
system.cpu0.fetch.rateDist::min_value               0                       # Number of instructions fetched each cycle (Total)
system.cpu0.fetch.rateDist::max_value               8                       # Number of instructions fetched each cycle (Total)
system.cpu0.fetch.rateDist::total            30531137                       # Number of instructions fetched each cycle (Total)
system.cpu0.fetch.branchRate                 0.197987                       # Number of branch fetches per cycle
system.cpu0.fetch.rate                       0.576198                       # Number of inst fetches per cycle
system.cpu0.decode.IdleCycles                 2685768                       # Number of cycles decode is idle
system.cpu0.decode.BlockedCycles             22898492                       # Number of cycles decode is blocked
system.cpu0.decode.RunCycles                  3440402                       # Number of cycles decode is running
system.cpu0.decode.UnblockCycles              1250150                       # Number of cycles decode is unblocking
system.cpu0.decode.SquashCycles                256325                       # Number of cycles decode is squashing
system.cpu0.decode.DecodedInsts              30536623                       # Number of instructions handled by decode
system.cpu0.rename.SquashCycles                256325                       # Number of cycles rename is squashing
system.cpu0.rename.IdleCycles                 3153839                       # Number of cycles rename is idle
system.cpu0.rename.BlockCycles               18483124                       # Number of cycles rename is blocking
system.cpu0.rename.serializeStallCycles         95540                       # count of cycles rename stalled for serializing inst
system.cpu0.rename.RunCycles                  3989020                       # Number of cycles rename is running
system.cpu0.rename.UnblockCycles              4553289                       # Number of cycles rename is unblocking
system.cpu0.rename.RenamedInsts              29382621                       # Number of instructions processed by rename
system.cpu0.rename.ROBFullEvents                52659                       # Number of times rename has blocked due to ROB full
system.cpu0.rename.IQFullEvents               4102534                       # Number of times rename has blocked due to IQ full
system.cpu0.rename.LQFullEvents                 66704                       # Number of times rename has blocked due to LQ full
system.cpu0.rename.SQFullEvents                163057                       # Number of times rename has blocked due to SQ full
system.cpu0.rename.RenamedOperands           35022508                       # Number of destination operands rename has renamed
system.cpu0.rename.RenameLookups             81738623                       # Number of register rename lookups that rename has made
system.cpu0.rename.int_rename_lookups        38548167                       # Number of integer rename lookups
system.cpu0.rename.fp_rename_lookups           175194                       # Number of floating rename lookups
system.cpu0.rename.CommittedMaps             14560301                       # Number of HB maps that are committed
system.cpu0.rename.UndoneMaps                20462247                       # Number of HB maps that are undone due to squashing
system.cpu0.rename.serializingInsts              1143                       # count of serializing insts renamed
system.cpu0.rename.tempSerializingInsts          1396                       # count of temporary serializing insts renamed
system.cpu0.rename.skidInsts                  7838979                       # count of insts added to the skid buffer
system.cpu0.memDep0.insertedLoads             5198854                       # Number of loads inserted to the mem dependence unit.
system.cpu0.memDep0.insertedStores             329800                       # Number of stores inserted to the mem dependence unit.
system.cpu0.memDep0.conflictingLoads            19991                       # Number of conflicting loads.
system.cpu0.memDep0.conflictingStores           21461                       # Number of conflicting stores.
system.cpu0.iq.iqInstsAdded                  27811468                       # Number of instructions added to the IQ (excludes non-spec)
system.cpu0.iq.iqNonSpecInstsAdded              18844                       # Number of non-speculative instructions added to the IQ
system.cpu0.iq.iqInstsIssued                 20700209                       # Number of instructions issued
system.cpu0.iq.iqSquashedInstsIssued            35365                       # Number of squashed instructions issued
system.cpu0.iq.iqSquashedInstsExamined       15724142                       # Number of squashed instructions iterated over during squash; mainly for profiling
system.cpu0.iq.iqSquashedOperandsExamined     32892215                       # Number of squashed operands that are examined and possibly removed from graph
system.cpu0.iq.iqSquashedNonSpecRemoved         18844                       # Number of squashed non-spec instructions that were removed
system.cpu0.iq.issued_per_cycle::samples     30531137                       # Number of insts issued each cycle
system.cpu0.iq.issued_per_cycle::mean        0.678003                       # Number of insts issued each cycle
system.cpu0.iq.issued_per_cycle::stdev       1.396293                       # Number of insts issued each cycle
system.cpu0.iq.issued_per_cycle::underflows            0      0.00%      0.00% # Number of insts issued each cycle
system.cpu0.iq.issued_per_cycle::0           22192134     72.69%     72.69% # Number of insts issued each cycle
system.cpu0.iq.issued_per_cycle::1            3182406     10.42%     83.11% # Number of insts issued each cycle
system.cpu0.iq.issued_per_cycle::2            1798538      5.89%     89.00% # Number of insts issued each cycle
system.cpu0.iq.issued_per_cycle::3            1294912      4.24%     93.24% # Number of insts issued each cycle
system.cpu0.iq.issued_per_cycle::4            1115918      3.66%     96.90% # Number of insts issued each cycle
system.cpu0.iq.issued_per_cycle::5             418938      1.37%     98.27% # Number of insts issued each cycle
system.cpu0.iq.issued_per_cycle::6             310150      1.02%     99.29% # Number of insts issued each cycle
system.cpu0.iq.issued_per_cycle::7             128399      0.42%     99.71% # Number of insts issued each cycle
system.cpu0.iq.issued_per_cycle::8              89742      0.29%    100.00% # Number of insts issued each cycle
system.cpu0.iq.issued_per_cycle::overflows            0      0.00%    100.00% # Number of insts issued each cycle
system.cpu0.iq.issued_per_cycle::min_value            0                       # Number of insts issued each cycle
system.cpu0.iq.issued_per_cycle::max_value            8                       # Number of insts issued each cycle
system.cpu0.iq.issued_per_cycle::total       30531137                       # Number of insts issued each cycle
system.cpu0.iq.fu_full::No_OpClass                  0      0.00%      0.00% # attempts to use FU when none available
system.cpu0.iq.fu_full::IntAlu                  56255     73.48%     73.48% # attempts to use FU when none available
system.cpu0.iq.fu_full::IntMult                     0      0.00%     73.48% # attempts to use FU when none available
system.cpu0.iq.fu_full::IntDiv                      0      0.00%     73.48% # attempts to use FU when none available
system.cpu0.iq.fu_full::FloatAdd                 5018      6.55%     80.03% # attempts to use FU when none available
system.cpu0.iq.fu_full::FloatCmp                    0      0.00%     80.03% # attempts to use FU when none available
system.cpu0.iq.fu_full::FloatCvt                    0      0.00%     80.03% # attempts to use FU when none available
system.cpu0.iq.fu_full::FloatMult                   0      0.00%     80.03% # attempts to use FU when none available
system.cpu0.iq.fu_full::FloatMultAcc                0      0.00%     80.03% # attempts to use FU when none available
system.cpu0.iq.fu_full::FloatDiv                    0      0.00%     80.03% # attempts to use FU when none available
system.cpu0.iq.fu_full::FloatMisc                   0      0.00%     80.03% # attempts to use FU when none available
system.cpu0.iq.fu_full::FloatSqrt                   0      0.00%     80.03% # attempts to use FU when none available
system.cpu0.iq.fu_full::SimdAdd                     0      0.00%     80.03% # attempts to use FU when none available
system.cpu0.iq.fu_full::SimdAddAcc                  0      0.00%     80.03% # attempts to use FU when none available
system.cpu0.iq.fu_full::SimdAlu                     0      0.00%     80.03% # attempts to use FU when none available
system.cpu0.iq.fu_full::SimdCmp                     0      0.00%     80.03% # attempts to use FU when none available
system.cpu0.iq.fu_full::SimdCvt                     0      0.00%     80.03% # attempts to use FU when none available
system.cpu0.iq.fu_full::SimdMisc                    0      0.00%     80.03% # attempts to use FU when none available
system.cpu0.iq.fu_full::SimdMult                    0      0.00%     80.03% # attempts to use FU when none available
system.cpu0.iq.fu_full::SimdMultAcc                 0      0.00%     80.03% # attempts to use FU when none available
system.cpu0.iq.fu_full::SimdShift                   0      0.00%     80.03% # attempts to use FU when none available
system.cpu0.iq.fu_full::SimdShiftAcc                0      0.00%     80.03% # attempts to use FU when none available
system.cpu0.iq.fu_full::SimdSqrt                    0      0.00%     80.03% # attempts to use FU when none available
system.cpu0.iq.fu_full::SimdFloatAdd                0      0.00%     80.03% # attempts to use FU when none available
system.cpu0.iq.fu_full::SimdFloatAlu                0      0.00%     80.03% # attempts to use FU when none available
system.cpu0.iq.fu_full::SimdFloatCmp                0      0.00%     80.03% # attempts to use FU when none available
system.cpu0.iq.fu_full::SimdFloatCvt                0      0.00%     80.03% # attempts to use FU when none available
system.cpu0.iq.fu_full::SimdFloatDiv                0      0.00%     80.03% # attempts to use FU when none available
system.cpu0.iq.fu_full::SimdFloatMisc               0      0.00%     80.03% # attempts to use FU when none available
system.cpu0.iq.fu_full::SimdFloatMult               0      0.00%     80.03% # attempts to use FU when none available
system.cpu0.iq.fu_full::SimdFloatMultAcc            0      0.00%     80.03% # attempts to use FU when none available
system.cpu0.iq.fu_full::SimdFloatSqrt               0      0.00%     80.03% # attempts to use FU when none available
system.cpu0.iq.fu_full::MemRead                 12921     16.88%     96.91% # attempts to use FU when none available
system.cpu0.iq.fu_full::MemWrite                 1275      1.67%     98.57% # attempts to use FU when none available
system.cpu0.iq.fu_full::FloatMemRead              584      0.76%     99.34% # attempts to use FU when none available
system.cpu0.iq.fu_full::FloatMemWrite             508      0.66%    100.00% # attempts to use FU when none available
system.cpu0.iq.fu_full::IprAccess                   0      0.00%    100.00% # attempts to use FU when none available
system.cpu0.iq.fu_full::InstPrefetch                0      0.00%    100.00% # attempts to use FU when none available
system.cpu0.iq.FU_type_0::No_OpClass            70903      0.34%      0.34% # Type of FU issued
system.cpu0.iq.FU_type_0::IntAlu             16936289     81.82%     82.16% # Type of FU issued
system.cpu0.iq.FU_type_0::IntMult                4258      0.02%     82.18% # Type of FU issued
system.cpu0.iq.FU_type_0::IntDiv                45398      0.22%     82.40% # Type of FU issued
system.cpu0.iq.FU_type_0::FloatAdd              65280      0.32%     82.71% # Type of FU issued
system.cpu0.iq.FU_type_0::FloatCmp                  0      0.00%     82.71% # Type of FU issued
system.cpu0.iq.FU_type_0::FloatCvt                  0      0.00%     82.71% # Type of FU issued
system.cpu0.iq.FU_type_0::FloatMult                 0      0.00%     82.71% # Type of FU issued
system.cpu0.iq.FU_type_0::FloatMultAcc              0      0.00%     82.71% # Type of FU issued
system.cpu0.iq.FU_type_0::FloatDiv                  0      0.00%     82.71% # Type of FU issued
system.cpu0.iq.FU_type_0::FloatMisc                 0      0.00%     82.71% # Type of FU issued
system.cpu0.iq.FU_type_0::FloatSqrt                 0      0.00%     82.71% # Type of FU issued
system.cpu0.iq.FU_type_0::SimdAdd                   0      0.00%     82.71% # Type of FU issued
system.cpu0.iq.FU_type_0::SimdAddAcc                0      0.00%     82.71% # Type of FU issued
system.cpu0.iq.FU_type_0::SimdAlu                   0      0.00%     82.71% # Type of FU issued
system.cpu0.iq.FU_type_0::SimdCmp                   0      0.00%     82.71% # Type of FU issued
system.cpu0.iq.FU_type_0::SimdCvt                   0      0.00%     82.71% # Type of FU issued
system.cpu0.iq.FU_type_0::SimdMisc                  0      0.00%     82.71% # Type of FU issued
system.cpu0.iq.FU_type_0::SimdMult                  0      0.00%     82.71% # Type of FU issued
system.cpu0.iq.FU_type_0::SimdMultAcc               0      0.00%     82.71% # Type of FU issued
system.cpu0.iq.FU_type_0::SimdShift                 0      0.00%     82.71% # Type of FU issued
system.cpu0.iq.FU_type_0::SimdShiftAcc              0      0.00%     82.71% # Type of FU issued
system.cpu0.iq.FU_type_0::SimdSqrt                  0      0.00%     82.71% # Type of FU issued
system.cpu0.iq.FU_type_0::SimdFloatAdd              0      0.00%     82.71% # Type of FU issued
system.cpu0.iq.FU_type_0::SimdFloatAlu              0      0.00%     82.71% # Type of FU issued
system.cpu0.iq.FU_type_0::SimdFloatCmp              0      0.00%     82.71% # Type of FU issued
system.cpu0.iq.FU_type_0::SimdFloatCvt              0      0.00%     82.71% # Type of FU issued
system.cpu0.iq.FU_type_0::SimdFloatDiv              0      0.00%     82.71% # Type of FU issued
system.cpu0.iq.FU_type_0::SimdFloatMisc             0      0.00%     82.71% # Type of FU issued
system.cpu0.iq.FU_type_0::SimdFloatMult             0      0.00%     82.71% # Type of FU issued
system.cpu0.iq.FU_type_0::SimdFloatMultAcc            0      0.00%     82.71% # Type of FU issued
system.cpu0.iq.FU_type_0::SimdFloatSqrt             0      0.00%     82.71% # Type of FU issued
system.cpu0.iq.FU_type_0::MemRead             3325831     16.07%     98.78% # Type of FU issued
system.cpu0.iq.FU_type_0::MemWrite             238158      1.15%     99.93% # Type of FU issued
system.cpu0.iq.FU_type_0::FloatMemRead          12020      0.06%     99.99% # Type of FU issued
system.cpu0.iq.FU_type_0::FloatMemWrite          2072      0.01%    100.00% # Type of FU issued
system.cpu0.iq.FU_type_0::IprAccess                 0      0.00%    100.00% # Type of FU issued
system.cpu0.iq.FU_type_0::InstPrefetch              0      0.00%    100.00% # Type of FU issued
system.cpu0.iq.FU_type_0::total              20700209                       # Type of FU issued
system.cpu0.iq.rate                          0.677924                       # Inst issue rate
system.cpu0.iq.fu_busy_cnt                      76561                       # FU busy when requested
system.cpu0.iq.fu_busy_rate                  0.003699                       # FU busy rate (busy events/executed inst)
system.cpu0.iq.int_inst_queue_reads          71876958                       # Number of integer instruction queue reads
system.cpu0.iq.int_inst_queue_writes         43404788                       # Number of integer instruction queue writes
system.cpu0.iq.int_inst_queue_wakeup_accesses     19818150                       # Number of integer instruction queue wakeup accesses
system.cpu0.iq.fp_inst_queue_reads             166520                       # Number of floating instruction queue reads
system.cpu0.iq.fp_inst_queue_writes            149688                       # Number of floating instruction queue writes
system.cpu0.iq.fp_inst_queue_wakeup_accesses        72286                       # Number of floating instruction queue wakeup accesses
system.cpu0.iq.vec_inst_queue_reads                 0                       # Number of vector instruction queue reads
system.cpu0.iq.vec_inst_queue_writes                0                       # Number of vector instruction queue writes
system.cpu0.iq.vec_inst_queue_wakeup_accesses            0                       # Number of vector instruction queue wakeup accesses
system.cpu0.iq.int_alu_accesses              20620229                       # Number of integer alu accesses
system.cpu0.iq.fp_alu_accesses                  85638                       # Number of floating point alu accesses
system.cpu0.iq.vec_alu_accesses                     0                       # Number of vector alu accesses
system.cpu0.iew.lsq.thread0.forwLoads           25267                       # Number of loads that had data forwarded from stores
system.cpu0.iew.lsq.thread0.invAddrLoads            0                       # Number of loads ignored due to an invalid address
system.cpu0.iew.lsq.thread0.squashedLoads      2952985                       # Number of loads squashed
system.cpu0.iew.lsq.thread0.ignoredResponses          762                       # Number of memory responses ignored because the instruction is squashed
system.cpu0.iew.lsq.thread0.memOrderViolation           25                       # Number of memory ordering violations
system.cpu0.iew.lsq.thread0.squashedStores       198160                       # Number of stores squashed
system.cpu0.iew.lsq.thread0.invAddrSwpfs            0                       # Number of software prefetches ignored due to an invalid address
system.cpu0.iew.lsq.thread0.blockedLoads            0                       # Number of blocked loads due to partial load-store forwarding
system.cpu0.iew.lsq.thread0.rescheduledLoads          224                       # Number of loads that were rescheduled
system.cpu0.iew.lsq.thread0.cacheBlocked        10121                       # Number of times an access to memory failed due to the cache being blocked
system.cpu0.iew.iewIdleCycles                       0                       # Number of cycles IEW is idle
system.cpu0.iew.iewSquashCycles                256325                       # Number of cycles IEW is squashing
system.cpu0.iew.iewBlockCycles               15214973                       # Number of cycles IEW is blocking
system.cpu0.iew.iewUnblockCycles               750748                       # Number of cycles IEW is unblocking
system.cpu0.iew.iewDispatchedInsts           27830312                       # Number of instructions dispatched to IQ
system.cpu0.iew.iewDispSquashedInsts            15021                       # Number of squashed instructions skipped by dispatch
system.cpu0.iew.iewDispLoadInsts              5198854                       # Number of dispatched load instructions
system.cpu0.iew.iewDispStoreInsts              329800                       # Number of dispatched store instructions
system.cpu0.iew.iewDispNonSpecInsts              6954                       # Number of dispatched non-speculative instructions
system.cpu0.iew.iewIQFullEvents                 29202                       # Number of times the IQ has become full, causing a stall
system.cpu0.iew.iewLSQFullEvents                37632                       # Number of times the LSQ has become full, causing a stall
system.cpu0.iew.memOrderViolationEvents            25                       # Number of memory order violations
system.cpu0.iew.predictedTakenIncorrect        131071                       # Number of branches that were predicted taken incorrectly
system.cpu0.iew.predictedNotTakenIncorrect       157013                       # Number of branches that were predicted not taken incorrectly
system.cpu0.iew.branchMispredicts              288084                       # Number of branch mispredicts detected at execute
system.cpu0.iew.iewExecutedInsts             20273566                       # Number of executed instructions
system.cpu0.iew.iewExecLoadInsts              3162504                       # Number of load instructions executed
system.cpu0.iew.iewExecSquashedInsts           426640                       # Number of squashed instructions skipped in execute
system.cpu0.iew.exec_swp                            0                       # number of swp insts executed
system.cpu0.iew.exec_nop                            0                       # number of nop insts executed
system.cpu0.iew.exec_refs                     3384227                       # number of memory reference insts executed
system.cpu0.iew.exec_branches                 2598398                       # Number of branches executed
system.cpu0.iew.exec_stores                    221723                       # Number of stores executed
system.cpu0.iew.exec_rate                    0.663952                       # Inst execution rate
system.cpu0.iew.wb_sent                      19962129                       # cumulative count of insts sent to commit
system.cpu0.iew.wb_count                     19890436                       # cumulative count of insts written-back
system.cpu0.iew.wb_producers                 14426847                       # num instructions producing a value
system.cpu0.iew.wb_consumers                 23629621                       # num instructions consuming a value
system.cpu0.iew.wb_rate                      0.651405                       # insts written-back per cycle
system.cpu0.iew.wb_fanout                    0.610541                       # average fanout of values written-back
system.cpu0.commit.commitSquashedInsts       15724940                       # The number of squashed insts skipped by commit
system.cpu0.commit.branchMispredicts           256313                       # The number of times a branch was mispredicted
system.cpu0.commit.committed_per_cycle::samples     28314822                       # Number of insts commited each cycle
system.cpu0.commit.committed_per_cycle::mean     0.427556                       # Number of insts commited each cycle
system.cpu0.commit.committed_per_cycle::stdev     1.122035                       # Number of insts commited each cycle
system.cpu0.commit.committed_per_cycle::underflows            0      0.00%      0.00% # Number of insts commited each cycle
system.cpu0.commit.committed_per_cycle::0     22958373     81.08%     81.08% # Number of insts commited each cycle
system.cpu0.commit.committed_per_cycle::1      2452892      8.66%     89.75% # Number of insts commited each cycle
system.cpu0.commit.committed_per_cycle::2       632418      2.23%     91.98% # Number of insts commited each cycle
system.cpu0.commit.committed_per_cycle::3      1679380      5.93%     97.91% # Number of insts commited each cycle
system.cpu0.commit.committed_per_cycle::4       231808      0.82%     98.73% # Number of insts commited each cycle
system.cpu0.commit.committed_per_cycle::5       129054      0.46%     99.18% # Number of insts commited each cycle
system.cpu0.commit.committed_per_cycle::6        27071      0.10%     99.28% # Number of insts commited each cycle
system.cpu0.commit.committed_per_cycle::7        15220      0.05%     99.33% # Number of insts commited each cycle
system.cpu0.commit.committed_per_cycle::8       188606      0.67%    100.00% # Number of insts commited each cycle
system.cpu0.commit.committed_per_cycle::overflows            0      0.00%    100.00% # Number of insts commited each cycle
system.cpu0.commit.committed_per_cycle::min_value            0                       # Number of insts commited each cycle
system.cpu0.commit.committed_per_cycle::max_value            8                       # Number of insts commited each cycle
system.cpu0.commit.committed_per_cycle::total     28314822                       # Number of insts commited each cycle
system.cpu0.commit.committedInsts             6063632                       # Number of instructions committed
system.cpu0.commit.committedOps              12106184                       # Number of ops (including micro ops) committed
system.cpu0.commit.swp_count                        0                       # Number of s/w prefetches committed
system.cpu0.commit.refs                       2377503                       # Number of memory references committed
system.cpu0.commit.loads                      2245857                       # Number of loads committed
system.cpu0.commit.membars                          0                       # Number of memory barriers committed
system.cpu0.commit.branches                   2166885                       # Number of branches committed
system.cpu0.commit.vec_insts                        0                       # Number of committed Vector instructions.
system.cpu0.commit.fp_insts                     53426                       # Number of committed floating point instructions.
system.cpu0.commit.int_insts                 12052489                       # Number of committed integer instructions.
system.cpu0.commit.function_calls               23254                       # Number of function calls committed.
system.cpu0.commit.op_class_0::No_OpClass        16041      0.13%      0.13% # Class of committed instruction
system.cpu0.commit.op_class_0::IntAlu         9627121     79.52%     79.65% # Class of committed instruction
system.cpu0.commit.op_class_0::IntMult            930      0.01%     79.66% # Class of committed instruction
system.cpu0.commit.op_class_0::IntDiv           39049      0.32%     79.99% # Class of committed instruction
system.cpu0.commit.op_class_0::FloatAdd         45540      0.38%     80.36% # Class of committed instruction
system.cpu0.commit.op_class_0::FloatCmp             0      0.00%     80.36% # Class of committed instruction
system.cpu0.commit.op_class_0::FloatCvt             0      0.00%     80.36% # Class of committed instruction
system.cpu0.commit.op_class_0::FloatMult            0      0.00%     80.36% # Class of committed instruction
system.cpu0.commit.op_class_0::FloatMultAcc            0      0.00%     80.36% # Class of committed instruction
system.cpu0.commit.op_class_0::FloatDiv             0      0.00%     80.36% # Class of committed instruction
system.cpu0.commit.op_class_0::FloatMisc            0      0.00%     80.36% # Class of committed instruction
system.cpu0.commit.op_class_0::FloatSqrt            0      0.00%     80.36% # Class of committed instruction
system.cpu0.commit.op_class_0::SimdAdd              0      0.00%     80.36% # Class of committed instruction
system.cpu0.commit.op_class_0::SimdAddAcc            0      0.00%     80.36% # Class of committed instruction
system.cpu0.commit.op_class_0::SimdAlu              0      0.00%     80.36% # Class of committed instruction
system.cpu0.commit.op_class_0::SimdCmp              0      0.00%     80.36% # Class of committed instruction
system.cpu0.commit.op_class_0::SimdCvt              0      0.00%     80.36% # Class of committed instruction
system.cpu0.commit.op_class_0::SimdMisc             0      0.00%     80.36% # Class of committed instruction
system.cpu0.commit.op_class_0::SimdMult             0      0.00%     80.36% # Class of committed instruction
system.cpu0.commit.op_class_0::SimdMultAcc            0      0.00%     80.36% # Class of committed instruction
system.cpu0.commit.op_class_0::SimdShift            0      0.00%     80.36% # Class of committed instruction
system.cpu0.commit.op_class_0::SimdShiftAcc            0      0.00%     80.36% # Class of committed instruction
system.cpu0.commit.op_class_0::SimdSqrt             0      0.00%     80.36% # Class of committed instruction
system.cpu0.commit.op_class_0::SimdFloatAdd            0      0.00%     80.36% # Class of committed instruction
system.cpu0.commit.op_class_0::SimdFloatAlu            0      0.00%     80.36% # Class of committed instruction
system.cpu0.commit.op_class_0::SimdFloatCmp            0      0.00%     80.36% # Class of committed instruction
system.cpu0.commit.op_class_0::SimdFloatCvt            0      0.00%     80.36% # Class of committed instruction
system.cpu0.commit.op_class_0::SimdFloatDiv            0      0.00%     80.36% # Class of committed instruction
system.cpu0.commit.op_class_0::SimdFloatMisc            0      0.00%     80.36% # Class of committed instruction
system.cpu0.commit.op_class_0::SimdFloatMult            0      0.00%     80.36% # Class of committed instruction
system.cpu0.commit.op_class_0::SimdFloatMultAcc            0      0.00%     80.36% # Class of committed instruction
system.cpu0.commit.op_class_0::SimdFloatSqrt            0      0.00%     80.36% # Class of committed instruction
system.cpu0.commit.op_class_0::MemRead        2237971     18.49%     98.85% # Class of committed instruction
system.cpu0.commit.op_class_0::MemWrite        131646      1.09%     99.93% # Class of committed instruction
system.cpu0.commit.op_class_0::FloatMemRead         7886      0.07%    100.00% # Class of committed instruction
system.cpu0.commit.op_class_0::FloatMemWrite            0      0.00%    100.00% # Class of committed instruction
system.cpu0.commit.op_class_0::IprAccess            0      0.00%    100.00% # Class of committed instruction
system.cpu0.commit.op_class_0::InstPrefetch            0      0.00%    100.00% # Class of committed instruction
system.cpu0.commit.op_class_0::total         12106184                       # Class of committed instruction
system.cpu0.commit.bw_lim_events               188606                       # number cycles where commit BW limit reached
system.cpu0.rob.rob_reads                    55957340                       # The number of ROB reads
system.cpu0.rob.rob_writes                   57887094                       # The number of ROB writes
system.cpu0.timesIdled                            396                       # Number of times that the entire CPU went into an idle state and unscheduled itself
system.cpu0.idleCycles                           3551                       # Total number of cycles that the CPU has spent unscheduled due to idling
system.cpu0.committedInsts                    6063632                       # Number of Instructions Simulated
system.cpu0.committedOps                     12106184                       # Number of Ops (including micro ops) Simulated
system.cpu0.cpi                              5.035709                       # CPI: Cycles Per Instruction
system.cpu0.cpi_total                        5.035709                       # CPI: Total CPI of All Threads
system.cpu0.ipc                              0.198582                       # IPC: Instructions Per Cycle
system.cpu0.ipc_total                        0.198582                       # IPC: Total IPC of All Threads
system.cpu0.int_regfile_reads                21059013                       # number of integer regfile reads
system.cpu0.int_regfile_writes               17102257                       # number of integer regfile writes
system.cpu0.fp_regfile_reads                   128171                       # number of floating regfile reads
system.cpu0.fp_regfile_writes                   63536                       # number of floating regfile writes
system.cpu0.cc_regfile_reads                 13830399                       # number of cc regfile reads
system.cpu0.cc_regfile_writes                 5851309                       # number of cc regfile writes
system.cpu0.misc_regfile_reads               10710730                       # number of misc regfile reads
system.cpu0.dcache.tags.pwrStateResidencyTicks::UNDEFINED  15267344125                       # Cumulative time (in ticks) in various power states
system.cpu0.dcache.tags.replacements          1201858                       # number of replacements
system.cpu0.dcache.tags.tagsinuse                 512                       # Cycle average of tags in use
system.cpu0.dcache.tags.total_refs            1247945                       # Total number of references to valid blocks.
system.cpu0.dcache.tags.sampled_refs          1201858                       # Sample count of references to valid blocks.
system.cpu0.dcache.tags.avg_refs             1.038346                       # Average number of references to valid blocks.
system.cpu0.dcache.tags.warmup_cycle                0                       # Cycle when the warmup percentage was hit.
system.cpu0.dcache.tags.occ_blocks::cpu0.data          512                       # Average occupied blocks per requestor
system.cpu0.dcache.tags.occ_percent::cpu0.data            1                       # Average percentage of cache occupancy
system.cpu0.dcache.tags.occ_percent::total            1                       # Average percentage of cache occupancy
system.cpu0.dcache.tags.occ_task_id_blocks::1024          512                       # Occupied blocks per task id
system.cpu0.dcache.tags.age_task_id_blocks_1024::0          469                       # Occupied blocks per task id
system.cpu0.dcache.tags.age_task_id_blocks_1024::1           43                       # Occupied blocks per task id
system.cpu0.dcache.tags.occ_task_id_percent::1024            1                       # Percentage of cache occupancy per task id
system.cpu0.dcache.tags.tag_accesses         14185938                       # Number of tag accesses
system.cpu0.dcache.tags.data_accesses        14185938                       # Number of data accesses
system.cpu0.dcache.pwrStateResidencyTicks::UNDEFINED  15267344125                       # Cumulative time (in ticks) in various power states
system.cpu0.dcache.ReadReq_hits::cpu0.data      1121704                       # number of ReadReq hits
system.cpu0.dcache.ReadReq_hits::total        1121704                       # number of ReadReq hits
system.cpu0.dcache.WriteReq_hits::cpu0.data       125792                       # number of WriteReq hits
system.cpu0.dcache.WriteReq_hits::total        125792                       # number of WriteReq hits
system.cpu0.dcache.demand_hits::cpu0.data      1247496                       # number of demand (read+write) hits
system.cpu0.dcache.demand_hits::total         1247496                       # number of demand (read+write) hits
system.cpu0.dcache.overall_hits::cpu0.data      1247496                       # number of overall hits
system.cpu0.dcache.overall_hits::total        1247496                       # number of overall hits
system.cpu0.dcache.ReadReq_misses::cpu0.data      1992670                       # number of ReadReq misses
system.cpu0.dcache.ReadReq_misses::total      1992670                       # number of ReadReq misses
system.cpu0.dcache.WriteReq_misses::cpu0.data         5854                       # number of WriteReq misses
system.cpu0.dcache.WriteReq_misses::total         5854                       # number of WriteReq misses
system.cpu0.dcache.demand_misses::cpu0.data      1998524                       # number of demand (read+write) misses
system.cpu0.dcache.demand_misses::total       1998524                       # number of demand (read+write) misses
system.cpu0.dcache.overall_misses::cpu0.data      1998524                       # number of overall misses
system.cpu0.dcache.overall_misses::total      1998524                       # number of overall misses
system.cpu0.dcache.ReadReq_miss_latency::cpu0.data  27993187000                       # number of ReadReq miss cycles
system.cpu0.dcache.ReadReq_miss_latency::total  27993187000                       # number of ReadReq miss cycles
system.cpu0.dcache.WriteReq_miss_latency::cpu0.data    368876986                       # number of WriteReq miss cycles
system.cpu0.dcache.WriteReq_miss_latency::total    368876986                       # number of WriteReq miss cycles
system.cpu0.dcache.demand_miss_latency::cpu0.data  28362063986                       # number of demand (read+write) miss cycles
system.cpu0.dcache.demand_miss_latency::total  28362063986                       # number of demand (read+write) miss cycles
system.cpu0.dcache.overall_miss_latency::cpu0.data  28362063986                       # number of overall miss cycles
system.cpu0.dcache.overall_miss_latency::total  28362063986                       # number of overall miss cycles
system.cpu0.dcache.ReadReq_accesses::cpu0.data      3114374                       # number of ReadReq accesses(hits+misses)
system.cpu0.dcache.ReadReq_accesses::total      3114374                       # number of ReadReq accesses(hits+misses)
system.cpu0.dcache.WriteReq_accesses::cpu0.data       131646                       # number of WriteReq accesses(hits+misses)
system.cpu0.dcache.WriteReq_accesses::total       131646                       # number of WriteReq accesses(hits+misses)
system.cpu0.dcache.demand_accesses::cpu0.data      3246020                       # number of demand (read+write) accesses
system.cpu0.dcache.demand_accesses::total      3246020                       # number of demand (read+write) accesses
system.cpu0.dcache.overall_accesses::cpu0.data      3246020                       # number of overall (read+write) accesses
system.cpu0.dcache.overall_accesses::total      3246020                       # number of overall (read+write) accesses
system.cpu0.dcache.ReadReq_miss_rate::cpu0.data     0.639830                       # miss rate for ReadReq accesses
system.cpu0.dcache.ReadReq_miss_rate::total     0.639830                       # miss rate for ReadReq accesses
system.cpu0.dcache.WriteReq_miss_rate::cpu0.data     0.044468                       # miss rate for WriteReq accesses
system.cpu0.dcache.WriteReq_miss_rate::total     0.044468                       # miss rate for WriteReq accesses
system.cpu0.dcache.demand_miss_rate::cpu0.data     0.615684                       # miss rate for demand accesses
system.cpu0.dcache.demand_miss_rate::total     0.615684                       # miss rate for demand accesses
system.cpu0.dcache.overall_miss_rate::cpu0.data     0.615684                       # miss rate for overall accesses
system.cpu0.dcache.overall_miss_rate::total     0.615684                       # miss rate for overall accesses
system.cpu0.dcache.ReadReq_avg_miss_latency::cpu0.data 14048.079712                       # average ReadReq miss latency
[...]
system.l2.overall_miss_latency::total      1052181500                       # number of overall miss cycles
system.l2.WritebackDirty_accesses::writebacks      1091206                       # number of WritebackDirty accesses(hits+misses)
system.l2.WritebackDirty_accesses::total      1091206                       # number of WritebackDirty accesses(hits+misses)
system.l2.WritebackClean_accesses::writebacks           26                       # number of WritebackClean accesses(hits+misses)
system.l2.WritebackClean_accesses::total           26                       # number of WritebackClean accesses(hits+misses)
system.l2.ReadExReq_accesses::cpu0.data          5825                       # number of ReadExReq accesses(hits+misses)
system.l2.ReadExReq_accesses::total              5825                       # number of ReadExReq accesses(hits+misses)
system.l2.ReadCleanReq_accesses::cpu0.inst           26                       # number of ReadCleanReq accesses(hits+misses)
system.l2.ReadCleanReq_accesses::total             26                       # number of ReadCleanReq accesses(hits+misses)
system.l2.ReadSharedReq_accesses::cpu0.data      1196032                       # number of ReadSharedReq accesses(hits+misses)
system.l2.ReadSharedReq_accesses::total       1196032                       # number of ReadSharedReq accesses(hits+misses)
system.l2.demand_accesses::cpu0.inst               26                       # number of demand (read+write) accesses
system.l2.demand_accesses::cpu0.data          1201857                       # number of demand (read+write) accesses
system.l2.demand_accesses::total              1201883                       # number of demand (read+write) accesses
system.l2.overall_accesses::cpu0.inst              26                       # number of overall (read+write) accesses
system.l2.overall_accesses::cpu0.data         1201857                       # number of overall (read+write) accesses
system.l2.overall_accesses::total             1201883                       # number of overall (read+write) accesses
system.l2.ReadExReq_miss_rate::cpu0.data     0.211845                       # miss rate for ReadExReq accesses
system.l2.ReadExReq_miss_rate::total         0.211845                       # miss rate for ReadExReq accesses
system.l2.ReadSharedReq_miss_rate::cpu0.data     0.004508                       # miss rate for ReadSharedReq accesses
system.l2.ReadSharedReq_miss_rate::total     0.004508                       # miss rate for ReadSharedReq accesses
system.l2.demand_miss_rate::cpu0.data        0.005513                       # miss rate for demand accesses
system.l2.demand_miss_rate::total            0.005513                       # miss rate for demand accesses
system.l2.overall_miss_rate::cpu0.data       0.005513                       # miss rate for overall accesses
system.l2.overall_miss_rate::total           0.005513                       # miss rate for overall accesses
system.l2.ReadExReq_avg_miss_latency::cpu0.data 242053.079417                       # average ReadExReq miss latency
system.l2.ReadExReq_avg_miss_latency::total 242053.079417                       # average ReadExReq miss latency
system.l2.ReadSharedReq_avg_miss_latency::cpu0.data 139741.839763                       # average ReadSharedReq miss latency
system.l2.ReadSharedReq_avg_miss_latency::total 139741.839763                       # average ReadSharedReq miss latency
system.l2.demand_avg_miss_latency::cpu0.data 158795.879867                       # average overall miss latency
system.l2.demand_avg_miss_latency::total 158795.879867                       # average overall miss latency
system.l2.overall_avg_miss_latency::cpu0.data 158795.879867                       # average overall miss latency
system.l2.overall_avg_miss_latency::total 158795.879867                       # average overall miss latency
system.l2.blocked_cycles::no_mshrs                  0                       # number of cycles access was blocked
system.l2.blocked_cycles::no_targets                0                       # number of cycles access was blocked
system.l2.blocked::no_mshrs                         0                       # number of cycles access was blocked
system.l2.blocked::no_targets                       0                       # number of cycles access was blocked
system.l2.avg_blocked_cycles::no_mshrs            nan                       # average number of cycles each access was blocked
system.l2.avg_blocked_cycles::no_targets          nan                       # average number of cycles each access was blocked
system.l2.writebacks::writebacks                 3436                       # number of writebacks
system.l2.writebacks::total                      3436                       # number of writebacks
system.l2.ReadExReq_mshr_misses::cpu0.data         1234                       # number of ReadExReq MSHR misses
system.l2.ReadExReq_mshr_misses::total           1234                       # number of ReadExReq MSHR misses
system.l2.ReadSharedReq_mshr_misses::cpu0.data         5392                       # number of ReadSharedReq MSHR misses
system.l2.ReadSharedReq_mshr_misses::total         5392                       # number of ReadSharedReq MSHR misses
system.l2.demand_mshr_misses::cpu0.data          6626                       # number of demand (read+write) MSHR misses
system.l2.demand_mshr_misses::total              6626                       # number of demand (read+write) MSHR misses
system.l2.overall_mshr_misses::cpu0.data         6626                       # number of overall MSHR misses
system.l2.overall_mshr_misses::total             6626                       # number of overall MSHR misses
system.l2.ReadExReq_mshr_miss_latency::cpu0.data    286343500                       # number of ReadExReq MSHR miss cycles
system.l2.ReadExReq_mshr_miss_latency::total    286343500                       # number of ReadExReq MSHR miss cycles
system.l2.ReadSharedReq_mshr_miss_latency::cpu0.data    699568000                       # number of ReadSharedReq MSHR miss cycles
system.l2.ReadSharedReq_mshr_miss_latency::total    699568000                       # number of ReadSharedReq MSHR miss cycles
system.l2.demand_mshr_miss_latency::cpu0.data    985911500                       # number of demand (read+write) MSHR miss cycles
system.l2.demand_mshr_miss_latency::total    985911500                       # number of demand (read+write) MSHR miss cycles
system.l2.overall_mshr_miss_latency::cpu0.data    985911500                       # number of overall MSHR miss cycles
system.l2.overall_mshr_miss_latency::total    985911500                       # number of overall MSHR miss cycles
system.l2.ReadExReq_mshr_miss_rate::cpu0.data     0.211845                       # mshr miss rate for ReadExReq accesses
system.l2.ReadExReq_mshr_miss_rate::total     0.211845                       # mshr miss rate for ReadExReq accesses
system.l2.ReadSharedReq_mshr_miss_rate::cpu0.data     0.004508                       # mshr miss rate for ReadSharedReq accesses
system.l2.ReadSharedReq_mshr_miss_rate::total     0.004508                       # mshr miss rate for ReadSharedReq accesses
system.l2.demand_mshr_miss_rate::cpu0.data     0.005513                       # mshr miss rate for demand accesses
system.l2.demand_mshr_miss_rate::total       0.005513                       # mshr miss rate for demand accesses
system.l2.overall_mshr_miss_rate::cpu0.data     0.005513                       # mshr miss rate for overall accesses
system.l2.overall_mshr_miss_rate::total      0.005513                       # mshr miss rate for overall accesses
system.l2.ReadExReq_avg_mshr_miss_latency::cpu0.data 232044.975689                       # average ReadExReq mshr miss latency
system.l2.ReadExReq_avg_mshr_miss_latency::total 232044.975689                       # average ReadExReq mshr miss latency
system.l2.ReadSharedReq_avg_mshr_miss_latency::cpu0.data 129741.839763                       # average ReadSharedReq mshr miss latency
system.l2.ReadSharedReq_avg_mshr_miss_latency::total 129741.839763                       # average ReadSharedReq mshr miss latency
system.l2.demand_avg_mshr_miss_latency::cpu0.data 148794.370661                       # average overall mshr miss latency
system.l2.demand_avg_mshr_miss_latency::total 148794.370661                       # average overall mshr miss latency
system.l2.overall_avg_mshr_miss_latency::cpu0.data 148794.370661                       # average overall mshr miss latency
system.l2.overall_avg_mshr_miss_latency::total 148794.370661                       # average overall mshr miss latency
system.membus.snoop_filter.tot_requests         13245                       # Total number of requests made to the snoop filter.
system.membus.snoop_filter.hit_single_requests         6619                       # Number of requests hitting in the snoop filter with a single holder of the requested data.
system.membus.snoop_filter.hit_multi_requests            0                       # Number of requests hitting in the snoop filter with multiple (>1) holders of the requested data.
system.membus.snoop_filter.tot_snoops               0                       # Total number of snoops made to the snoop filter.
system.membus.snoop_filter.hit_single_snoops            0                       # Number of snoops hitting in the snoop filter with a single holder of the requested data.
system.membus.snoop_filter.hit_multi_snoops            0                       # Number of snoops hitting in the snoop filter with multiple (>1) holders of the requested data.
system.membus.pwrStateResidencyTicks::UNDEFINED  15267344125                       # Cumulative time (in ticks) in various power states
system.membus.trans_dist::ReadResp               5392                       # Transaction distribution
system.membus.trans_dist::WritebackDirty         3436                       # Transaction distribution
system.membus.trans_dist::CleanEvict             3183                       # Transaction distribution
system.membus.trans_dist::ReadExReq              1234                       # Transaction distribution
system.membus.trans_dist::ReadExResp             1235                       # Transaction distribution
system.membus.trans_dist::ReadSharedReq          5392                       # Transaction distribution
system.membus.pkt_count_system.l2.mem_side::system.mem_ctrls.port        19872                       # Packet count per connected master and slave (bytes)
system.membus.pkt_count_system.l2.mem_side::total        19872                       # Packet count per connected master and slave (bytes)
system.membus.pkt_count::total                  19872                       # Packet count per connected master and slave (bytes)
system.membus.pkt_size_system.l2.mem_side::system.mem_ctrls.port       644032                       # Cumulative packet size per connected master and slave (bytes)
system.membus.pkt_size_system.l2.mem_side::total       644032                       # Cumulative packet size per connected master and slave (bytes)
system.membus.pkt_size::total                  644032                       # Cumulative packet size per connected master and slave (bytes)
system.membus.snoops                                0                       # Total snoops (count)
system.membus.snoopTraffic                          0                       # Total snoop traffic (bytes)
system.membus.snoop_fanout::samples              6626                       # Request fanout histogram
system.membus.snoop_fanout::mean                    0                       # Request fanout histogram
system.membus.snoop_fanout::stdev                   0                       # Request fanout histogram
system.membus.snoop_fanout::underflows              0      0.00%      0.00% # Request fanout histogram
system.membus.snoop_fanout::0                    6626    100.00%    100.00% # Request fanout histogram
system.membus.snoop_fanout::1                       0      0.00%    100.00% # Request fanout histogram
system.membus.snoop_fanout::overflows               0      0.00%    100.00% # Request fanout histogram
system.membus.snoop_fanout::min_value               0                       # Request fanout histogram
system.membus.snoop_fanout::max_value               0                       # Request fanout histogram
system.membus.snoop_fanout::total                6626                       # Request fanout histogram
system.membus.reqLayer12.occupancy           28712000                       # Layer occupancy (ticks)
system.membus.reqLayer12.utilization              0.2                       # Layer utilization (%)
system.membus.respLayer1.occupancy           36098250                       # Layer occupancy (ticks)
system.membus.respLayer1.utilization              0.2                       # Layer utilization (%)
system.tol2bus.snoop_filter.tot_requests      2403767                       # Total number of requests made to the snoop filter.
system.tol2bus.snoop_filter.hit_single_requests      1201884                       # Number of requests hitting in the snoop filter with a single holder of the requested data.
system.tol2bus.snoop_filter.hit_multi_requests         2880                       # Number of requests hitting in the snoop filter with multiple (>1) holders of the requested data.
system.tol2bus.snoop_filter.tot_snoops             13                       # Total number of snoops made to the snoop filter.
system.tol2bus.snoop_filter.hit_single_snoops           13                       # Number of snoops hitting in the snoop filter with a single holder of the requested data.
system.tol2bus.snoop_filter.hit_multi_snoops            0                       # Number of snoops hitting in the snoop filter with multiple (>1) holders of the requested data.
system.tol2bus.pwrStateResidencyTicks::UNDEFINED  15267344125                       # Cumulative time (in ticks) in various power states
system.tol2bus.trans_dist::ReadResp           1196058                       # Transaction distribution
system.tol2bus.trans_dist::WritebackDirty      1094642                       # Transaction distribution
system.tol2bus.trans_dist::WritebackClean           26                       # Transaction distribution
system.tol2bus.trans_dist::CleanEvict          113848                       # Transaction distribution
system.tol2bus.trans_dist::ReadExReq             5825                       # Transaction distribution
system.tol2bus.trans_dist::ReadExResp            5826                       # Transaction distribution
system.tol2bus.trans_dist::ReadCleanReq            26                       # Transaction distribution
system.tol2bus.trans_dist::ReadSharedReq      1196032                       # Transaction distribution
system.tol2bus.pkt_count_system.cpu0.icache.mem_side::system.l2.cpu_side           78                       # Packet count per connected master and slave (bytes)
system.tol2bus.pkt_count_system.cpu0.dcache.mem_side::system.l2.cpu_side      3605573                       # Packet count per connected master and slave (bytes)
system.tol2bus.pkt_count::total               3605651                       # Packet count per connected master and slave (bytes)
system.tol2bus.pkt_size_system.cpu0.icache.mem_side::system.l2.cpu_side         3328                       # Cumulative packet size per connected master and slave (bytes)
system.tol2bus.pkt_size_system.cpu0.dcache.mem_side::system.l2.cpu_side    146756096                       # Cumulative packet size per connected master and slave (bytes)
system.tol2bus.pkt_size::total              146759424                       # Cumulative packet size per connected master and slave (bytes)
system.tol2bus.snoops                            6632                       # Total snoops (count)
system.tol2bus.snoopTraffic                    219904                       # Total snoop traffic (bytes)
system.tol2bus.snoop_fanout::samples          1208515                       # Request fanout histogram
system.tol2bus.snoop_fanout::mean            0.002394                       # Request fanout histogram
system.tol2bus.snoop_fanout::stdev           0.048868                       # Request fanout histogram
system.tol2bus.snoop_fanout::underflows             0      0.00%      0.00% # Request fanout histogram
system.tol2bus.snoop_fanout::0                1205622     99.76%     99.76% # Request fanout histogram
system.tol2bus.snoop_fanout::1                   2893      0.24%    100.00% # Request fanout histogram
system.tol2bus.snoop_fanout::2                      0      0.00%    100.00% # Request fanout histogram
system.tol2bus.snoop_fanout::3                      0      0.00%    100.00% # Request fanout histogram
system.tol2bus.snoop_fanout::4                      0      0.00%    100.00% # Request fanout histogram
system.tol2bus.snoop_fanout::5                      0      0.00%    100.00% # Request fanout histogram
system.tol2bus.snoop_fanout::6                      0      0.00%    100.00% # Request fanout histogram
system.tol2bus.snoop_fanout::7                      0      0.00%    100.00% # Request fanout histogram
system.tol2bus.snoop_fanout::8                      0      0.00%    100.00% # Request fanout histogram
system.tol2bus.snoop_fanout::9                      0      0.00%    100.00% # Request fanout histogram
system.tol2bus.snoop_fanout::10                     0      0.00%    100.00% # Request fanout histogram
system.tol2bus.snoop_fanout::11                     0      0.00%    100.00% # Request fanout histogram
system.tol2bus.snoop_fanout::12                     0      0.00%    100.00% # Request fanout histogram
system.tol2bus.snoop_fanout::13                     0      0.00%    100.00% # Request fanout histogram
system.tol2bus.snoop_fanout::14                     0      0.00%    100.00% # Request fanout histogram
system.tol2bus.snoop_fanout::15                     0      0.00%    100.00% # Request fanout histogram
system.tol2bus.snoop_fanout::16                     0      0.00%    100.00% # Request fanout histogram
system.tol2bus.snoop_fanout::17                     0      0.00%    100.00% # Request fanout histogram
system.tol2bus.snoop_fanout::18                     0      0.00%    100.00% # Request fanout histogram
system.tol2bus.snoop_fanout::19                     0      0.00%    100.00% # Request fanout histogram
system.tol2bus.snoop_fanout::20                     0      0.00%    100.00% # Request fanout histogram
system.tol2bus.snoop_fanout::21                     0      0.00%    100.00% # Request fanout histogram
system.tol2bus.snoop_fanout::22                     0      0.00%    100.00% # Request fanout histogram
system.tol2bus.snoop_fanout::23                     0      0.00%    100.00% # Request fanout histogram
system.tol2bus.snoop_fanout::24                     0      0.00%    100.00% # Request fanout histogram
system.tol2bus.snoop_fanout::overflows              0      0.00%    100.00% # Request fanout histogram
system.tol2bus.snoop_fanout::min_value              0                       # Request fanout histogram
system.tol2bus.snoop_fanout::max_value              1                       # Request fanout histogram
system.tol2bus.snoop_fanout::total            1208515                       # Request fanout histogram
system.tol2bus.reqLayer0.occupancy         2293115500                       # Layer occupancy (ticks)
system.tol2bus.reqLayer0.utilization             15.0                       # Layer utilization (%)
system.tol2bus.respLayer0.occupancy             39499                       # Layer occupancy (ticks)
system.tol2bus.respLayer0.utilization             0.0                       # Layer utilization (%)
system.tol2bus.respLayer1.occupancy        1802787000                       # Layer occupancy (ticks)
system.tol2bus.respLayer1.utilization            11.8                       # Layer utilization (%)

---------- End Simulation Statistics   ----------
