
---------- Begin Simulation Statistics ----------
sim_seconds                                  0.015267                       # Number of seconds simulated
sim_ticks                                 15267344125                       # Number of ticks simulated
final_tick                               1190852841750                       # Number of ticks from beginning of simulation (restored from checkpoints and never reset)
sim_freq                                 1000000000000                       # Frequency of simulated ticks
host_inst_rate                               12668496                       # Simulator instruction rate (inst/s)
host_op_rate                                 23298893                       # Simulator op (including micro ops) rate (op/s)
host_tick_rate                               72566553                       # Simulator tick rate (ticks/s)
host_mem_usage                                3428316                       # Number of bytes of host memory used
host_seconds                                   210.39                       # Real time elapsed on the host
sim_insts                                  2665336302                       # Number of instructions simulated
sim_ops                                    4901875359                       # Number of ops (including micro ops) simulated
system.voltage_domain.voltage                       1                       # Voltage in Volts
system.clk_domain.clock                          1000                       # Clock period in ticks
system.mem_ctrls.pwrStateResidencyTicks::UNDEFINED  15267344125                       # Cumulative time (in ticks) in various power states
system.mem_ctrls.bytes_read::cpu0.inst          12992                       # Number of bytes read from this memory
system.mem_ctrls.bytes_read::cpu0.data        2728640                       # Number of bytes read from this memory
system.mem_ctrls.bytes_read::total            2741632                       # Number of bytes read from this memory
system.mem_ctrls.bytes_inst_read::cpu0.inst        12992                       # Number of instructions bytes read from this memory
system.mem_ctrls.bytes_inst_read::total         12992                       # Number of instructions bytes read from this memory
system.mem_ctrls.num_reads::cpu0.inst             203                       # Number of read requests responded to by this memory
system.mem_ctrls.num_reads::cpu0.data           42635                       # Number of read requests responded to by this memory
system.mem_ctrls.num_reads::total               42838                       # Number of read requests responded to by this memory
system.mem_ctrls.bw_read::cpu0.inst            850967                       # Total read bandwidth from this memory (bytes/s)
system.mem_ctrls.bw_read::cpu0.data         178723947                       # Total read bandwidth from this memory (bytes/s)
system.mem_ctrls.bw_read::total             179574913                       # Total read bandwidth from this memory (bytes/s)
system.mem_ctrls.bw_inst_read::cpu0.inst       850967                       # Instruction read bandwidth from this memory (bytes/s)
system.mem_ctrls.bw_inst_read::total           850967                       # Instruction read bandwidth from this memory (bytes/s)
system.mem_ctrls.bw_total::cpu0.inst           850967                       # Total bandwidth to/from this memory (bytes/s)
system.mem_ctrls.bw_total::cpu0.data        178723947                       # Total bandwidth to/from this memory (bytes/s)
system.mem_ctrls.bw_total::total            179574913                       # Total bandwidth to/from this memory (bytes/s)
system.mem_ctrls.readReqs                       42838                       # Number of read requests accepted
system.mem_ctrls.writeReqs                          0                       # Number of write requests accepted
system.mem_ctrls.readBursts                     42838                       # Number of DRAM read bursts, including those serviced by the write queue
system.mem_ctrls.writeBursts                        0                       # Number of DRAM write bursts, including those merged in the write queue
system.mem_ctrls.bytesReadDRAM                2739776                       # Total number of bytes read from DRAM
system.mem_ctrls.bytesReadWrQ                    1856                       # Total number of bytes read from write queue
system.mem_ctrls.bytesWritten                       0                       # Total number of bytes written to DRAM
system.mem_ctrls.bytesReadSys                 2741632                       # Total read bytes from the system interface side
system.mem_ctrls.bytesWrittenSys                    0                       # Total written bytes from the system interface side
system.mem_ctrls.servicedByWrQ                     29                       # Number of DRAM read bursts serviced by the write queue
system.mem_ctrls.mergedWrBursts                     0                       # Number of DRAM write bursts merged with an existing one
system.mem_ctrls.neitherReadNorWriteReqs            0                       # Number of requests that are neither read nor write
system.mem_ctrls.perBankRdBursts::0              2754                       # Per bank write bursts
system.mem_ctrls.perBankRdBursts::1              2701                       # Per bank write bursts
system.mem_ctrls.perBankRdBursts::2              2822                       # Per bank write bursts
system.mem_ctrls.perBankRdBursts::3              2823                       # Per bank write bursts
system.mem_ctrls.perBankRdBursts::4              2846                       # Per bank write bursts
system.mem_ctrls.perBankRdBursts::5              2748                       # Per bank write bursts
system.mem_ctrls.perBankRdBursts::6              2688                       # Per bank write bursts
system.mem_ctrls.perBankRdBursts::7              2639                       # Per bank write bursts
system.mem_ctrls.perBankRdBursts::8              2510                       # Per bank write bursts
system.mem_ctrls.perBankRdBursts::9              2433                       # Per bank write bursts
system.mem_ctrls.perBankRdBursts::10             2438                       # Per bank write bursts
system.mem_ctrls.perBankRdBursts::11             2445                       # Per bank write bursts
system.mem_ctrls.perBankRdBursts::12             2603                       # Per bank write bursts
system.mem_ctrls.perBankRdBursts::13             2725                       # Per bank write bursts
system.mem_ctrls.perBankRdBursts::14             2828                       # Per bank write bursts
system.mem_ctrls.perBankRdBursts::15             2806                       # Per bank write bursts
system.mem_ctrls.perBankWrBursts::0                 0                       # Per bank write bursts
system.mem_ctrls.perBankWrBursts::1                 0                       # Per bank write bursts
system.mem_ctrls.perBankWrBursts::2                 0                       # Per bank write bursts
system.mem_ctrls.perBankWrBursts::3                 0                       # Per bank write bursts
system.mem_ctrls.perBankWrBursts::4                 0                       # Per bank write bursts
system.mem_ctrls.perBankWrBursts::5                 0                       # Per bank write bursts
system.mem_ctrls.perBankWrBursts::6                 0                       # Per bank write bursts
system.mem_ctrls.perBankWrBursts::7                 0                       # Per bank write bursts
system.mem_ctrls.perBankWrBursts::8                 0                       # Per bank write bursts
system.mem_ctrls.perBankWrBursts::9                 0                       # Per bank write bursts
system.mem_ctrls.perBankWrBursts::10                0                       # Per bank write bursts
system.mem_ctrls.perBankWrBursts::11                0                       # Per bank write bursts
system.mem_ctrls.perBankWrBursts::12                0                       # Per bank write bursts
system.mem_ctrls.perBankWrBursts::13                0                       # Per bank write bursts
system.mem_ctrls.perBankWrBursts::14                0                       # Per bank write bursts
system.mem_ctrls.perBankWrBursts::15                0                       # Per bank write bursts
system.mem_ctrls.numRdRetry                         0                       # Number of times read queue was full causing retry
system.mem_ctrls.numWrRetry                         0                       # Number of times write queue was full causing retry
system.mem_ctrls.totGap                   15266328500                       # Total gap between requests
system.mem_ctrls.readPktSize::0                     0                       # Read request sizes (log2)
system.mem_ctrls.readPktSize::1                     0                       # Read request sizes (log2)
system.mem_ctrls.readPktSize::2                     0                       # Read request sizes (log2)
system.mem_ctrls.readPktSize::3                     0                       # Read request sizes (log2)
system.mem_ctrls.readPktSize::4                     0                       # Read request sizes (log2)
system.mem_ctrls.readPktSize::5                     0                       # Read request sizes (log2)
system.mem_ctrls.readPktSize::6                 42838                       # Read request sizes (log2)
system.mem_ctrls.writePktSize::0                    0                       # Write request sizes (log2)
system.mem_ctrls.writePktSize::1                    0                       # Write request sizes (log2)
system.mem_ctrls.writePktSize::2                    0                       # Write request sizes (log2)
system.mem_ctrls.writePktSize::3                    0                       # Write request sizes (log2)
system.mem_ctrls.writePktSize::4                    0                       # Write request sizes (log2)
system.mem_ctrls.writePktSize::5                    0                       # Write request sizes (log2)
system.mem_ctrls.writePktSize::6                    0                       # Write request sizes (log2)
system.mem_ctrls.rdQLenPdf::0                   33190                       # What read queue length does an incoming req see
system.mem_ctrls.rdQLenPdf::1                    9531                       # What read queue length does an incoming req see
system.mem_ctrls.rdQLenPdf::2                      63                       # What read queue length does an incoming req see
system.mem_ctrls.rdQLenPdf::3                      19                       # What read queue length does an incoming req see
system.mem_ctrls.rdQLenPdf::4                       6                       # What read queue length does an incoming req see
system.mem_ctrls.rdQLenPdf::5                       0                       # What read queue length does an incoming req see
system.mem_ctrls.rdQLenPdf::6                       0                       # What read queue length does an incoming req see
system.mem_ctrls.rdQLenPdf::7                       0                       # What read queue length does an incoming req see
system.mem_ctrls.rdQLenPdf::8                       0                       # What read queue length does an incoming req see
system.mem_ctrls.rdQLenPdf::9                       0                       # What read queue length does an incoming req see
system.mem_ctrls.rdQLenPdf::10                      0                       # What read queue length does an incoming req see
system.mem_ctrls.rdQLenPdf::11                      0                       # What read queue length does an incoming req see
system.mem_ctrls.rdQLenPdf::12                      0                       # What read queue length does an incoming req see
system.mem_ctrls.rdQLenPdf::13                      0                       # What read queue length does an incoming req see
system.mem_ctrls.rdQLenPdf::14                      0                       # What read queue length does an incoming req see
system.mem_ctrls.rdQLenPdf::15                      0                       # What read queue length does an incoming req see
system.mem_ctrls.rdQLenPdf::16                      0                       # What read queue length does an incoming req see
system.mem_ctrls.rdQLenPdf::17                      0                       # What read queue length does an incoming req see
system.mem_ctrls.rdQLenPdf::18                      0                       # What read queue length does an incoming req see
system.mem_ctrls.rdQLenPdf::19                      0                       # What read queue length does an incoming req see
system.mem_ctrls.rdQLenPdf::20                      0                       # What read queue length does an incoming req see
system.mem_ctrls.rdQLenPdf::21                      0                       # What read queue length does an incoming req see
system.mem_ctrls.rdQLenPdf::22                      0                       # What read queue length does an incoming req see
system.mem_ctrls.rdQLenPdf::23                      0                       # What read queue length does an incoming req see
system.mem_ctrls.rdQLenPdf::24                      0                       # What read queue length does an incoming req see
system.mem_ctrls.rdQLenPdf::25                      0                       # What read queue length does an incoming req see
system.mem_ctrls.rdQLenPdf::26                      0                       # What read queue length does an incoming req see
system.mem_ctrls.rdQLenPdf::27                      0                       # What read queue length does an incoming req see
system.mem_ctrls.rdQLenPdf::28                      0                       # What read queue length does an incoming req see
system.mem_ctrls.rdQLenPdf::29                      0                       # What read queue length does an incoming req see
system.mem_ctrls.rdQLenPdf::30                      0                       # What read queue length does an incoming req see
system.mem_ctrls.rdQLenPdf::31                      0                       # What read queue length does an incoming req see
system.mem_ctrls.wrQLenPdf::0                       0                       # What write queue length does an incoming req see
system.mem_ctrls.wrQLenPdf::1                       0                       # What write queue length does an incoming req see
system.mem_ctrls.wrQLenPdf::2                       0                       # What write queue length does an incoming req see
system.mem_ctrls.wrQLenPdf::3                       0                       # What write queue length does an incoming req see
system.mem_ctrls.wrQLenPdf::4                       0                       # What write queue length does an incoming req see
system.mem_ctrls.wrQLenPdf::5                       0                       # What write queue length does an incoming req see
system.mem_ctrls.wrQLenPdf::6                       0                       # What write queue length does an incoming req see
system.mem_ctrls.wrQLenPdf::7                       0                       # What write queue length does an incoming req see
system.mem_ctrls.wrQLenPdf::8                       0                       # What write queue length does an incoming req see
system.mem_ctrls.wrQLenPdf::9                       0                       # What write queue length does an incoming req see
system.mem_ctrls.wrQLenPdf::10                      0                       # What write queue length does an incoming req see
system.mem_ctrls.wrQLenPdf::11                      0                       # What write queue length does an incoming req see
system.mem_ctrls.wrQLenPdf::12                      0                       # What write queue length does an incoming req see
system.mem_ctrls.wrQLenPdf::13                      0                       # What write queue length does an incoming req see
system.mem_ctrls.wrQLenPdf::14                      0                       # What write queue length does an incoming req see
system.mem_ctrls.wrQLenPdf::15                      0                       # What write queue length does an incoming req see
system.mem_ctrls.wrQLenPdf::16                      0                       # What write queue length does an incoming req see
system.mem_ctrls.wrQLenPdf::17                      0                       # What write queue length does an incoming req see
system.mem_ctrls.wrQLenPdf::18                      0                       # What write queue length does an incoming req see
system.mem_ctrls.wrQLenPdf::19                      0                       # What write queue length does an incoming req see
system.mem_ctrls.wrQLenPdf::20                      0                       # What write queue length does an incoming req see
system.mem_ctrls.wrQLenPdf::21                      0                       # What write queue length does an incoming req see
system.mem_ctrls.wrQLenPdf::22                      0                       # What write queue length does an incoming req see
system.mem_ctrls.wrQLenPdf::23                      0                       # What write queue length does an incoming req see
system.mem_ctrls.wrQLenPdf::24                      0                       # What write queue length does an incoming req see
system.mem_ctrls.wrQLenPdf::25                      0                       # What write queue length does an incoming req see
system.mem_ctrls.wrQLenPdf::26                      0                       # What write queue length does an incoming req see
system.mem_ctrls.wrQLenPdf::27                      0                       # What write queue length does an incoming req see
system.mem_ctrls.wrQLenPdf::28                      0                       # What write queue length does an incoming req see
system.mem_ctrls.wrQLenPdf::29                      0                       # What write queue length does an incoming req see
system.mem_ctrls.wrQLenPdf::30                      0                       # What write queue length does an incoming req see
system.mem_ctrls.wrQLenPdf::31                      0                       # What write queue length does an incoming req see
system.mem_ctrls.wrQLenPdf::32                      0                       # What write queue length does an incoming req see
system.mem_ctrls.wrQLenPdf::33                      0                       # What write queue length does an incoming req see
system.mem_ctrls.wrQLenPdf::34                      0                       # What write queue length does an incoming req see
system.mem_ctrls.wrQLenPdf::35                      0                       # What write queue length does an incoming req see
system.mem_ctrls.wrQLenPdf::36                      0                       # What write queue length does an incoming req see
system.mem_ctrls.wrQLenPdf::37                      0                       # What write queue length does an incoming req see
system.mem_ctrls.wrQLenPdf::38                      0                       # What write queue length does an incoming req see
system.mem_ctrls.wrQLenPdf::39                      0                       # What write queue length does an incoming req see
system.mem_ctrls.wrQLenPdf::40                      0                       # What write queue length does an incoming req see
system.mem_ctrls.wrQLenPdf::41                      0                       # What write queue length does an incoming req see
system.mem_ctrls.wrQLenPdf::42                      0                       # What write queue length does an incoming req see
system.mem_ctrls.wrQLenPdf::43                      0                       # What write queue length does an incoming req see
system.mem_ctrls.wrQLenPdf::44                      0                       # What write queue length does an incoming req see
system.mem_ctrls.wrQLenPdf::45                      0                       # What write queue length does an incoming req see
system.mem_ctrls.wrQLenPdf::46                      0                       # What write queue length does an incoming req see
system.mem_ctrls.wrQLenPdf::47                      0                       # What write queue length does an incoming req see
system.mem_ctrls.wrQLenPdf::48                      0                       # What write queue length does an incoming req see
system.mem_ctrls.wrQLenPdf::49                      0                       # What write queue length does an incoming req see
system.mem_ctrls.wrQLenPdf::50                      0                       # What write queue length does an incoming req see
system.mem_ctrls.wrQLenPdf::51                      0                       # What write queue length does an incoming req see
system.mem_ctrls.wrQLenPdf::52                      0                       # What write queue length does an incoming req see
system.mem_ctrls.wrQLenPdf::53                      0                       # What write queue length does an incoming req see
system.mem_ctrls.wrQLenPdf::54                      0                       # What write queue length does an incoming req see
system.mem_ctrls.wrQLenPdf::55                      0                       # What write queue length does an incoming req see
system.mem_ctrls.wrQLenPdf::56                      0                       # What write queue length does an incoming req see
system.mem_ctrls.wrQLenPdf::57                      0                       # What write queue length does an incoming req see
system.mem_ctrls.wrQLenPdf::58                      0                       # What write queue length does an incoming req see
system.mem_ctrls.wrQLenPdf::59                      0                       # What write queue length does an incoming req see
system.mem_ctrls.wrQLenPdf::60                      0                       # What write queue length does an incoming req see
system.mem_ctrls.wrQLenPdf::61                      0                       # What write queue length does an incoming req see
system.mem_ctrls.wrQLenPdf::62                      0                       # What write queue length does an incoming req see
system.mem_ctrls.wrQLenPdf::63                      0                       # What write queue length does an incoming req see
system.mem_ctrls.bytesPerActivate::samples         4689                       # Bytes accessed per row activation
system.mem_ctrls.bytesPerActivate::mean    584.325869                       # Bytes accessed per row activation
system.mem_ctrls.bytesPerActivate::gmean   419.938720                       # Bytes accessed per row activation
system.mem_ctrls.bytesPerActivate::stdev   366.181164                       # Bytes accessed per row activation
system.mem_ctrls.bytesPerActivate::0-127          775     16.53%     16.53% # Bytes accessed per row activation
system.mem_ctrls.bytesPerActivate::128-255          127      2.71%     19.24% # Bytes accessed per row activation
system.mem_ctrls.bytesPerActivate::256-383          150      3.20%     22.44% # Bytes accessed per row activation
system.mem_ctrls.bytesPerActivate::384-511         1627     34.70%     57.13% # Bytes accessed per row activation
system.mem_ctrls.bytesPerActivate::512-639          202      4.31%     61.44% # Bytes accessed per row activation
system.mem_ctrls.bytesPerActivate::640-767           10      0.21%     61.65% # Bytes accessed per row activation
system.mem_ctrls.bytesPerActivate::768-895           62      1.32%     62.98% # Bytes accessed per row activation
system.mem_ctrls.bytesPerActivate::896-1023            3      0.06%     63.04% # Bytes accessed per row activation
system.mem_ctrls.bytesPerActivate::1024-1151         1733     36.96%    100.00% # Bytes accessed per row activation
system.mem_ctrls.bytesPerActivate::total         4689                       # Bytes accessed per row activation
system.mem_ctrls.totQLat                    603357750                       # Total ticks spent queuing
system.mem_ctrls.totMemAccLat              1406026500                       # Total ticks spent from burst creation until serviced by the DRAM
system.mem_ctrls.totBusLat                  214045000                       # Total ticks spent in databus transfers
system.mem_ctrls.avgQLat                     14094.18                       # Average queueing delay per DRAM burst
system.mem_ctrls.avgBusLat                    5000.00                       # Average bus latency per DRAM burst
system.mem_ctrls.avgMemAccLat                32844.18                       # Average memory access latency per DRAM burst
system.mem_ctrls.avgRdBW                       179.45                       # Average DRAM read bandwidth in MiByte/s
system.mem_ctrls.avgWrBW                         0.00                       # Average achieved write bandwidth in MiByte/s
system.mem_ctrls.avgRdBWSys                    179.57                       # Average system read bandwidth in MiByte/s
system.mem_ctrls.avgWrBWSys                      0.00                       # Average system write bandwidth in MiByte/s
system.mem_ctrls.peakBW                      12800.00                       # Theoretical peak bandwidth in MiByte/s
system.mem_ctrls.busUtil                         1.40                       # Data bus utilization in percentage
system.mem_ctrls.busUtilRead                     1.40                       # Data bus utilization in percentage for reads
system.mem_ctrls.busUtilWrite                    0.00                       # Data bus utilization in percentage for writes
system.mem_ctrls.avgRdQLen                       1.05                       # Average read queue length when enqueuing
system.mem_ctrls.avgWrQLen                      29.00                       # Average write queue length when enqueuing
system.mem_ctrls.readRowHits                    38120                       # Number of row buffer hits during reads
system.mem_ctrls.writeRowHits                       0                       # Number of row buffer hits during writes
system.mem_ctrls.readRowHitRate                 89.05                       # Row buffer hit rate for reads
system.mem_ctrls.writeRowHitRate                  nan                       # Row buffer hit rate for writes
system.mem_ctrls.avgGap                     356373.51                       # Average gap between requests
system.mem_ctrls.pageHitRate                    89.05                       # Row buffer hit rate, read and write combined
system.mem_ctrls_0.actEnergy                 19556460                       # Energy for activate commands per rank (pJ)
system.mem_ctrls_0.preEnergy                 10390710                       # Energy for precharge commands per rank (pJ)
system.mem_ctrls_0.readEnergy               157229940                       # Energy for read commands per rank (pJ)
system.mem_ctrls_0.writeEnergy                      0                       # Energy for write commands per rank (pJ)
system.mem_ctrls_0.refreshEnergy         1198548000.000000                       # Energy for refresh commands per rank (pJ)
system.mem_ctrls_0.actBackEnergy            452012280                       # Energy for active background per rank (pJ)
system.mem_ctrls_0.preBackEnergy             58571040                       # Energy for precharge background per rank (pJ)
system.mem_ctrls_0.actPowerDownEnergy      4090270980                       # Energy for active power-down per rank (pJ)
system.mem_ctrls_0.prePowerDownEnergy      1063066080                       # Energy for precharge power-down per rank (pJ)
system.mem_ctrls_0.selfRefreshEnergy        747523980                       # Energy for self refresh per rank (pJ)
system.mem_ctrls_0.totalEnergy             7797169470                       # Total energy per rank (pJ)
system.mem_ctrls_0.averagePower            510.708962                       # Core power per rank (mW)
system.mem_ctrls_0.totalIdleTime          14122616125                       # Total Idle time Per DRAM Rank
system.mem_ctrls_0.memoryStateTime::IDLE     95658000                       # Time in different power states
system.mem_ctrls_0.memoryStateTime::REF     508908000                       # Time in different power states
system.mem_ctrls_0.memoryStateTime::SREF   2385269125                       # Time in different power states
system.mem_ctrls_0.memoryStateTime::PRE_PDN   2768385250                       # Time in different power states
system.mem_ctrls_0.memoryStateTime::ACT     539134000                       # Time in different power states
system.mem_ctrls_0.memoryStateTime::ACT_PDN   8969989750                       # Time in different power states
system.mem_ctrls_1.actEnergy                 13923000                       # Energy for activate commands per rank (pJ)
system.mem_ctrls_1.preEnergy                  7404045                       # Energy for precharge commands per rank (pJ)
system.mem_ctrls_1.readEnergy               148426320                       # Energy for read commands per rank (pJ)
system.mem_ctrls_1.writeEnergy                      0                       # Energy for write commands per rank (pJ)
system.mem_ctrls_1.refreshEnergy         630006000.000000                       # Energy for refresh commands per rank (pJ)
system.mem_ctrls_1.actBackEnergy            328860930                       # Energy for active background per rank (pJ)
system.mem_ctrls_1.preBackEnergy             20071200                       # Energy for precharge background per rank (pJ)
system.mem_ctrls_1.actPowerDownEnergy      2971420830                       # Energy for active power-down per rank (pJ)
system.mem_ctrls_1.prePowerDownEnergy       199196640                       # Energy for precharge power-down per rank (pJ)
system.mem_ctrls_1.selfRefreshEnergy       1803383460                       # Energy for self refresh per rank (pJ)
system.mem_ctrls_1.totalEnergy             6122692425                       # Total energy per rank (pJ)
system.mem_ctrls_1.averagePower            401.031926                       # Core power per rank (mW)
system.mem_ctrls_1.totalIdleTime          13712443125                       # Total Idle time Per DRAM Rank
system.mem_ctrls_1.memoryStateTime::IDLE     15660000                       # Time in different power states
system.mem_ctrls_1.memoryStateTime::REF     266644000                       # Time in different power states
system.mem_ctrls_1.memoryStateTime::SREF   7458871250                       # Time in different power states
system.mem_ctrls_1.memoryStateTime::PRE_PDN    518639750                       # Time in different power states
system.mem_ctrls_1.memoryStateTime::ACT     491464000                       # Time in different power states
system.mem_ctrls_1.memoryStateTime::ACT_PDN   6516065125                       # Time in different power states
system.pwrStateResidencyTicks::UNDEFINED  15267344125                       # Cumulative time (in ticks) in various power states
system.cpu0.branchPred.lookups                4913160                       # Number of BP lookups
system.cpu0.branchPred.condPredicted          4913160                       # Number of conditional branches predicted
system.cpu0.branchPred.condIncorrect            95815                       # Number of conditional branches incorrect
system.cpu0.branchPred.BTBLookups             3932481                       # Number of BTB lookups
system.cpu0.branchPred.BTBHits                      0                       # Number of BTB hits
system.cpu0.branchPred.BTBCorrect                   0                       # Number of correct BTB predictions (this stat may not work properly.
system.cpu0.branchPred.BTBHitPct             0.000000                       # BTB Hit Percentage
system.cpu0.branchPred.usedRAS                 637048                       # Number of times the RAS was used to get a target.
system.cpu0.branchPred.RASInCorrect               212                       # Number of incorrect RAS predictions.
system.cpu0.branchPred.indirectLookups        3932481                       # Number of indirect predictor lookups.
system.cpu0.branchPred.indirectHits           2544178                       # Number of indirect target hits.
system.cpu0.branchPred.indirectMisses         1388303                       # Number of indirect misses.
system.cpu0.branchPredindirectMispredicted          792                       # Number of mispredicted indirect branches.
system.cpu_voltage_domain.voltage                   1                       # Voltage in Volts
system.cpu_clk_domain.clock                       500                       # Clock period in ticks
system.cpu0.dtb.walker.pwrStateResidencyTicks::UNDEFINED  15267344125                       # Cumulative time (in ticks) in various power states
system.cpu0.dtb.rdAccesses                    8059571                       # TLB accesses on read requests
system.cpu0.dtb.wrAccesses                    1921111                       # TLB accesses on write requests
system.cpu0.dtb.rdMisses                          857                       # TLB misses on read requests
system.cpu0.dtb.wrMisses                          197                       # TLB misses on write requests
system.cpu0.apic_clk_domain.clock                8000                       # Clock period in ticks
system.cpu0.interrupts.pwrStateResidencyTicks::UNDEFINED  15267344125                       # Cumulative time (in ticks) in various power states
system.cpu0.itb.walker.pwrStateResidencyTicks::UNDEFINED  15267344125                       # Cumulative time (in ticks) in various power states
system.cpu0.itb.rdAccesses                          0                       # TLB accesses on read requests
system.cpu0.itb.wrAccesses                    5476236                       # TLB accesses on write requests
system.cpu0.itb.rdMisses                            0                       # TLB misses on read requests
system.cpu0.itb.wrMisses                           49                       # TLB misses on write requests
system.cpu0.workload.numSyscalls                    4                       # Number of system calls
system.cpu0.pwrStateResidencyTicks::ON    15267344125                       # Cumulative time (in ticks) in various power states
system.cpu0.numCycles                        30534688                       # number of cpu cycles simulated
system.cpu0.numWorkItemsStarted                     0                       # number of work items this cpu started
system.cpu0.numWorkItemsCompleted                   0                       # number of work items this cpu completed
system.cpu0.fetch.icacheStallCycles           5544640                       # Number of cycles fetch is stalled on an Icache miss
system.cpu0.fetch.Insts                      42102751                       # Number of instructions fetch has processed
system.cpu0.fetch.Branches                    4913160                       # Number of branches that fetch encountered
system.cpu0.fetch.predictedBranches           3181226                       # Number of branches that fetch has predicted taken
system.cpu0.fetch.Cycles                     24879777                       # Number of cycles fetch has run and was not squashing or blocked
system.cpu0.fetch.SquashCycles                 191974                       # Number of cycles fetch has spent squashing
system.cpu0.fetch.MiscStallCycles                  41                       # Number of cycles fetch has spent waiting on interrupts, or bad addresses, or out of MSHRs
system.cpu0.fetch.PendingTrapStallCycles          272                       # Number of stall cycles due to pending traps
system.cpu0.fetch.CacheLines                  5476187                       # Number of cache lines fetched
system.cpu0.fetch.IcacheSquashes                34353                       # Number of outstanding Icache misses that were squashed
system.cpu0.fetch.rateDist::samples          30520717                       # Number of instructions fetched each cycle (Total)
system.cpu0.fetch.rateDist::mean             2.412961                       # Number of instructions fetched each cycle (Total)
system.cpu0.fetch.rateDist::stdev            3.290115                       # Number of instructions fetched each cycle (Total)
system.cpu0.fetch.rateDist::underflows              0      0.00%      0.00% # Number of instructions fetched each cycle (Total)
system.cpu0.fetch.rateDist::0                17853055     58.49%     58.49% # Number of instructions fetched each cycle (Total)
system.cpu0.fetch.rateDist::1                  828936      2.72%     61.21% # Number of instructions fetched each cycle (Total)
system.cpu0.fetch.rateDist::2                 1478296      4.84%     66.05% # Number of instructions fetched each cycle (Total)
system.cpu0.fetch.rateDist::3                  639157      2.09%     68.15% # Number of instructions fetched each cycle (Total)
system.cpu0.fetch.rateDist::4                  937732      3.07%     71.22% # Number of instructions fetched each cycle (Total)
system.cpu0.fetch.rateDist::5                 1415703      4.64%     75.86% # Number of instructions fetched each cycle (Total)
system.cpu0.fetch.rateDist::6                  550446      1.80%     77.66% # Number of instructions fetched each cycle (Total)
system.cpu0.fetch.rateDist::7                  728967      2.39%     80.05% # Number of instructions fetched each cycle (Total)
system.cpu0.fetch.rateDist::8                 6088425     19.95%    100.00% # Number of instructions fetched each cycle (Total)
system.cpu0.fetch.rateDist::overflows               0      0.00%    100.00% # Number of instructions fetched each cycle (Total)
system.cpu0.fetch.rateDist::min_value               0                       # Number of instructions fetched each cycle (Total)
system.cpu0.fetch.rateDist::max_value               8                       # Number of instructions fetched each cycle (Total)
system.cpu0.fetch.rateDist::total            30520717                       # Number of instructions fetched each cycle (Total)
system.cpu0.fetch.branchRate                 0.160904                       # Number of branch fetches per cycle
system.cpu0.fetch.rate                       1.378850                       # Number of inst fetches per cycle
system.cpu0.decode.IdleCycles                 3707974                       # Number of cycles decode is idle
system.cpu0.decode.BlockedCycles             17143209                       # Number of cycles decode is blocked
system.cpu0.decode.RunCycles                  5534701                       # Number of cycles decode is running
system.cpu0.decode.UnblockCycles              4038846                       # Number of cycles decode is unblocking
system.cpu0.decode.SquashCycles                 95987                       # Number of cycles decode is squashing
system.cpu0.decode.DecodedInsts              70640046                       # Number of instructions handled by decode
system.cpu0.rename.SquashCycles                 95987                       # Number of cycles rename is squashing
system.cpu0.rename.IdleCycles                 5269582                       # Number of cycles rename is idle
system.cpu0.rename.BlockCycles                6856569                       # Number of cycles rename is blocking
system.cpu0.rename.serializeStallCycles           575                       # count of cycles rename stalled for serializing inst
system.cpu0.rename.RunCycles                  7960513                       # Number of cycles rename is running
system.cpu0.rename.UnblockCycles             10337491                       # Number of cycles rename is unblocking
system.cpu0.rename.RenamedInsts              70093379                       # Number of instructions processed by rename
system.cpu0.rename.ROBFullEvents               292418                       # Number of times rename has blocked due to ROB full
system.cpu0.rename.IQFullEvents               8020234                       # Number of times rename has blocked due to IQ full
system.cpu0.rename.LQFullEvents                   168                       # Number of times rename has blocked due to LQ full
system.cpu0.rename.SQFullEvents               1220965                       # Number of times rename has blocked due to SQ full
system.cpu0.rename.RenamedOperands           76962516                       # Number of destination operands rename has renamed
system.cpu0.rename.RenameLookups            166267740                       # Number of register rename lookups that rename has made
system.cpu0.rename.int_rename_lookups        56536273                       # Number of integer rename lookups
system.cpu0.rename.fp_rename_lookups         65460158                       # Number of floating rename lookups
system.cpu0.rename.CommittedMaps             66188377                       # Number of HB maps that are committed
system.cpu0.rename.UndoneMaps                10774294                       # Number of HB maps that are undone due to squashing
system.cpu0.rename.serializingInsts                15                       # count of serializing insts renamed
system.cpu0.rename.tempSerializingInsts            14                       # count of temporary serializing insts renamed
system.cpu0.rename.skidInsts                 21387424                       # count of insts added to the skid buffer
system.cpu0.memDep0.insertedLoads             8574631                       # Number of loads inserted to the mem dependence unit.
system.cpu0.memDep0.insertedStores            1925038                       # Number of stores inserted to the mem dependence unit.
system.cpu0.memDep0.conflictingLoads           370594                       # Number of conflicting loads.
system.cpu0.memDep0.conflictingStores          147906                       # Number of conflicting stores.
system.cpu0.iq.iqInstsAdded                  69549727                       # Number of instructions added to the IQ (excludes non-spec)
system.cpu0.iq.iqNonSpecInstsAdded                185                       # Number of non-speculative instructions added to the IQ
system.cpu0.iq.iqInstsIssued                 64611838                       # Number of instructions issued
system.cpu0.iq.iqSquashedInstsIssued              328                       # Number of squashed instructions issued
system.cpu0.iq.iqSquashedInstsExamined        9195313                       # Number of squashed instructions iterated over during squash; mainly for profiling
system.cpu0.iq.iqSquashedOperandsExamined     13322173                       # Number of squashed operands that are examined and possibly removed from graph
system.cpu0.iq.iqSquashedNonSpecRemoved           151                       # Number of squashed non-spec instructions that were removed
system.cpu0.iq.issued_per_cycle::samples     30520717                       # Number of insts issued each cycle
system.cpu0.iq.issued_per_cycle::mean        2.116983                       # Number of insts issued each cycle
system.cpu0.iq.issued_per_cycle::stdev       1.991717                       # Number of insts issued each cycle
system.cpu0.iq.issued_per_cycle::underflows            0      0.00%      0.00% # Number of insts issued each cycle
system.cpu0.iq.issued_per_cycle::0            8598563     28.17%     28.17% # Number of insts issued each cycle
system.cpu0.iq.issued_per_cycle::1            5456273     17.88%     46.05% # Number of insts issued each cycle
system.cpu0.iq.issued_per_cycle::2            5044534     16.53%     62.58% # Number of insts issued each cycle
system.cpu0.iq.issued_per_cycle::3            4436136     14.53%     77.11% # Number of insts issued each cycle
system.cpu0.iq.issued_per_cycle::4            2770333      9.08%     86.19% # Number of insts issued each cycle
system.cpu0.iq.issued_per_cycle::5            1805432      5.92%     92.11% # Number of insts issued each cycle
system.cpu0.iq.issued_per_cycle::6            1510054      4.95%     97.05% # Number of insts issued each cycle
system.cpu0.iq.issued_per_cycle::7             605863      1.99%     99.04% # Number of insts issued each cycle
system.cpu0.iq.issued_per_cycle::8             293529      0.96%    100.00% # Number of insts issued each cycle
system.cpu0.iq.issued_per_cycle::overflows            0      0.00%    100.00% # Number of insts issued each cycle
system.cpu0.iq.issued_per_cycle::min_value            0                       # Number of insts issued each cycle
system.cpu0.iq.issued_per_cycle::max_value            8                       # Number of insts issued each cycle
system.cpu0.iq.issued_per_cycle::total       30520717                       # Number of insts issued each cycle
system.cpu0.iq.fu_full::No_OpClass                  0      0.00%      0.00% # attempts to use FU when none available
system.cpu0.iq.fu_full::IntAlu                   2616      2.77%      2.77% # attempts to use FU when none available
system.cpu0.iq.fu_full::IntMult                     0      0.00%      2.77% # attempts to use FU when none available
system.cpu0.iq.fu_full::IntDiv                      0      0.00%      2.77% # attempts to use FU when none available
system.cpu0.iq.fu_full::FloatAdd                91419     96.97%     99.74% # attempts to use FU when none available
system.cpu0.iq.fu_full::FloatCmp                    0      0.00%     99.74% # attempts to use FU when none available
system.cpu0.iq.fu_full::FloatCvt                    0      0.00%     99.74% # attempts to use FU when none available
system.cpu0.iq.fu_full::FloatMult                   0      0.00%     99.74% # attempts to use FU when none available
system.cpu0.iq.fu_full::FloatMultAcc                0      0.00%     99.74% # attempts to use FU when none available
system.cpu0.iq.fu_full::FloatDiv                    0      0.00%     99.74% # attempts to use FU when none available
system.cpu0.iq.fu_full::FloatMisc                   0      0.00%     99.74% # attempts to use FU when none available
system.cpu0.iq.fu_full::FloatSqrt                   0      0.00%     99.74% # attempts to use FU when none available
system.cpu0.iq.fu_full::SimdAdd                     0      0.00%     99.74% # attempts to use FU when none available
system.cpu0.iq.fu_full::SimdAddAcc                  0      0.00%     99.74% # attempts to use FU when none available
system.cpu0.iq.fu_full::SimdAlu                     0      0.00%     99.74% # attempts to use FU when none available
system.cpu0.iq.fu_full::SimdCmp                     0      0.00%     99.74% # attempts to use FU when none available
system.cpu0.iq.fu_full::SimdCvt                     0      0.00%     99.74% # attempts to use FU when none available
system.cpu0.iq.fu_full::SimdMisc                    0      0.00%     99.74% # attempts to use FU when none available
system.cpu0.iq.fu_full::SimdMult                    0      0.00%     99.74% # attempts to use FU when none available
system.cpu0.iq.fu_full::SimdMultAcc                 0      0.00%     99.74% # attempts to use FU when none available
system.cpu0.iq.fu_full::SimdShift                   0      0.00%     99.74% # attempts to use FU when none available
system.cpu0.iq.fu_full::SimdShiftAcc                0      0.00%     99.74% # attempts to use FU when none available
system.cpu0.iq.fu_full::SimdSqrt                    0      0.00%     99.74% # attempts to use FU when none available
system.cpu0.iq.fu_full::SimdFloatAdd                0      0.00%     99.74% # attempts to use FU when none available
system.cpu0.iq.fu_full::SimdFloatAlu                0      0.00%     99.74% # attempts to use FU when none available
system.cpu0.iq.fu_full::SimdFloatCmp                0      0.00%     99.74% # attempts to use FU when none available
system.cpu0.iq.fu_full::SimdFloatCvt                0      0.00%     99.74% # attempts to use FU when none available
system.cpu0.iq.fu_full::SimdFloatDiv                0      0.00%     99.74% # attempts to use FU when none available
system.cpu0.iq.fu_full::SimdFloatMisc               0      0.00%     99.74% # attempts to use FU when none available
system.cpu0.iq.fu_full::SimdFloatMult               0      0.00%     99.74% # attempts to use FU when none available
system.cpu0.iq.fu_full::SimdFloatMultAcc            0      0.00%     99.74% # attempts to use FU when none available
system.cpu0.iq.fu_full::SimdFloatSqrt               0      0.00%     99.74% # attempts to use FU when none available
system.cpu0.iq.fu_full::MemRead                   199      0.21%     99.95% # attempts to use FU when none available
system.cpu0.iq.fu_full::MemWrite                   26      0.03%     99.98% # attempts to use FU when none available
system.cpu0.iq.fu_full::FloatMemRead                1      0.00%     99.98% # attempts to use FU when none available
system.cpu0.iq.fu_full::FloatMemWrite              16      0.02%    100.00% # attempts to use FU when none available
system.cpu0.iq.fu_full::IprAccess                   0      0.00%    100.00% # attempts to use FU when none available
system.cpu0.iq.fu_full::InstPrefetch                0      0.00%    100.00% # attempts to use FU when none available
system.cpu0.iq.FU_type_0::No_OpClass            11462      0.02%      0.02% # Type of FU issued
system.cpu0.iq.FU_type_0::IntAlu             34656423     53.64%     53.66% # Type of FU issued
system.cpu0.iq.FU_type_0::IntMult                  27      0.00%     53.66% # Type of FU issued
system.cpu0.iq.FU_type_0::IntDiv                   16      0.00%     53.66% # Type of FU issued
system.cpu0.iq.FU_type_0::FloatAdd           19983226     30.93%     84.58% # Type of FU issued
system.cpu0.iq.FU_type_0::FloatCmp                  0      0.00%     84.58% # Type of FU issued
system.cpu0.iq.FU_type_0::FloatCvt                  0      0.00%     84.58% # Type of FU issued
system.cpu0.iq.FU_type_0::FloatMult                 0      0.00%     84.58% # Type of FU issued
system.cpu0.iq.FU_type_0::FloatMultAcc              0      0.00%     84.58% # Type of FU issued
system.cpu0.iq.FU_type_0::FloatDiv                  0      0.00%     84.58% # Type of FU issued
system.cpu0.iq.FU_type_0::FloatMisc                 0      0.00%     84.58% # Type of FU issued
system.cpu0.iq.FU_type_0::FloatSqrt                 0      0.00%     84.58% # Type of FU issued
system.cpu0.iq.FU_type_0::SimdAdd                   0      0.00%     84.58% # Type of FU issued
system.cpu0.iq.FU_type_0::SimdAddAcc                0      0.00%     84.58% # Type of FU issued
system.cpu0.iq.FU_type_0::SimdAlu                   0      0.00%     84.58% # Type of FU issued
system.cpu0.iq.FU_type_0::SimdCmp                   0      0.00%     84.58% # Type of FU issued
system.cpu0.iq.FU_type_0::SimdCvt                   0      0.00%     84.58% # Type of FU issued
system.cpu0.iq.FU_type_0::SimdMisc                  0      0.00%     84.58% # Type of FU issued
system.cpu0.iq.FU_type_0::SimdMult                  0      0.00%     84.58% # Type of FU issued
system.cpu0.iq.FU_type_0::SimdMultAcc               0      0.00%     84.58% # Type of FU issued
system.cpu0.iq.FU_type_0::SimdShift                 0      0.00%     84.58% # Type of FU issued
system.cpu0.iq.FU_type_0::SimdShiftAcc              0      0.00%     84.58% # Type of FU issued
system.cpu0.iq.FU_type_0::SimdSqrt                  0      0.00%     84.58% # Type of FU issued
system.cpu0.iq.FU_type_0::SimdFloatAdd              0      0.00%     84.58% # Type of FU issued
system.cpu0.iq.FU_type_0::SimdFloatAlu              0      0.00%     84.58% # Type of FU issued
system.cpu0.iq.FU_type_0::SimdFloatCmp              0      0.00%     84.58% # Type of FU issued
system.cpu0.iq.FU_type_0::SimdFloatCvt              0      0.00%     84.58% # Type of FU issued
system.cpu0.iq.FU_type_0::SimdFloatDiv              0      0.00%     84.58% # Type of FU issued
system.cpu0.iq.FU_type_0::SimdFloatMisc             0      0.00%     84.58% # Type of FU issued
system.cpu0.iq.FU_type_0::SimdFloatMult             0      0.00%     84.58% # Type of FU issued
system.cpu0.iq.FU_type_0::SimdFloatMultAcc            0      0.00%     84.58% # Type of FU issued
system.cpu0.iq.FU_type_0::SimdFloatSqrt             0      0.00%     84.58% # Type of FU issued
system.cpu0.iq.FU_type_0::MemRead             2015303      3.12%     87.70% # Type of FU issued
system.cpu0.iq.FU_type_0::MemWrite            1294028      2.00%     89.71% # Type of FU issued
system.cpu0.iq.FU_type_0::FloatMemRead        6023502      9.32%     99.03% # Type of FU issued
system.cpu0.iq.FU_type_0::FloatMemWrite        627851      0.97%    100.00% # Type of FU issued
system.cpu0.iq.FU_type_0::IprAccess                 0      0.00%    100.00% # Type of FU issued
system.cpu0.iq.FU_type_0::InstPrefetch              0      0.00%    100.00% # Type of FU issued
system.cpu0.iq.FU_type_0::total              64611838                       # Type of FU issued
system.cpu0.iq.rate                          2.116014                       # Inst issue rate
system.cpu0.iq.fu_busy_cnt                      94277                       # FU busy when requested
system.cpu0.iq.fu_busy_rate                  0.001459                       # FU busy rate (busy events/executed inst)
system.cpu0.iq.int_inst_queue_reads          94692253                       # Number of integer instruction queue reads
system.cpu0.iq.int_inst_queue_writes         35590298                       # Number of integer instruction queue writes
system.cpu0.iq.int_inst_queue_wakeup_accesses     32010447                       # Number of integer instruction queue wakeup accesses
system.cpu0.iq.fp_inst_queue_reads           65146742                       # Number of floating instruction queue reads
system.cpu0.iq.fp_inst_queue_writes          43155070                       # Number of floating instruction queue writes
system.cpu0.iq.fp_inst_queue_wakeup_accesses     32382825                       # Number of floating instruction queue wakeup accesses
system.cpu0.iq.vec_inst_queue_reads                 0                       # Number of vector instruction queue reads
system.cpu0.iq.vec_inst_queue_writes                0                       # Number of vector instruction queue writes
system.cpu0.iq.vec_inst_queue_wakeup_accesses            0                       # Number of vector instruction queue wakeup accesses
system.cpu0.iq.int_alu_accesses              32075568                       # Number of integer alu accesses
system.cpu0.iq.fp_alu_accesses               32619085                       # Number of floating point alu accesses
system.cpu0.iq.vec_alu_accesses                     0                       # Number of vector alu accesses
system.cpu0.iew.lsq.thread0.forwLoads          365282                       # Number of loads that had data forwarded from stores
system.cpu0.iew.lsq.thread0.invAddrLoads            0                       # Number of loads ignored due to an invalid address
system.cpu0.iew.lsq.thread0.squashedLoads      1207639                       # Number of loads squashed
system.cpu0.iew.lsq.thread0.ignoredResponses           26                       # Number of memory responses ignored because the instruction is squashed
system.cpu0.iew.lsq.thread0.memOrderViolation          145                       # Number of memory ordering violations
system.cpu0.iew.lsq.thread0.squashedStores         5947                       # Number of stores squashed
system.cpu0.iew.lsq.thread0.invAddrSwpfs            0                       # Number of software prefetches ignored due to an invalid address
system.cpu0.iew.lsq.thread0.blockedLoads            0                       # Number of blocked loads due to partial load-store forwarding
system.cpu0.iew.lsq.thread0.rescheduledLoads            9                       # Number of loads that were rescheduled
system.cpu0.iew.lsq.thread0.cacheBlocked           90                       # Number of times an access to memory failed due to the cache being blocked
system.cpu0.iew.iewIdleCycles                       0                       # Number of cycles IEW is idle
system.cpu0.iew.iewSquashCycles                 95987                       # Number of cycles IEW is squashing
system.cpu0.iew.iewBlockCycles                3939348                       # Number of cycles IEW is blocking
system.cpu0.iew.iewUnblockCycles               915351                       # Number of cycles IEW is unblocking
system.cpu0.iew.iewDispatchedInsts           69549912                       # Number of instructions dispatched to IQ
system.cpu0.iew.iewDispSquashedInsts               52                       # Number of squashed instructions skipped by dispatch
system.cpu0.iew.iewDispLoadInsts              8574631                       # Number of dispatched load instructions
system.cpu0.iew.iewDispStoreInsts             1925038                       # Number of dispatched store instructions
system.cpu0.iew.iewDispNonSpecInsts                68                       # Number of dispatched non-speculative instructions
system.cpu0.iew.iewIQFullEvents                120349                       # Number of times the IQ has become full, causing a stall
system.cpu0.iew.iewLSQFullEvents               774077                       # Number of times the LSQ has become full, causing a stall
system.cpu0.iew.memOrderViolationEvents           145                       # Number of memory order violations
system.cpu0.iew.predictedTakenIncorrect         63792                       # Number of branches that were predicted taken incorrectly
system.cpu0.iew.predictedNotTakenIncorrect        32824                       # Number of branches that were predicted not taken incorrectly
system.cpu0.iew.branchMispredicts               96616                       # Number of branch mispredicts detected at execute
system.cpu0.iew.iewExecutedInsts             64404538                       # Number of executed instructions
system.cpu0.iew.iewExecLoadInsts              8036616                       # Number of load instructions executed
system.cpu0.iew.iewExecSquashedInsts           207297                       # Number of squashed instructions skipped in execute
system.cpu0.iew.exec_swp                            0                       # number of swp insts executed
system.cpu0.iew.exec_nop                            0                       # number of nop insts executed
system.cpu0.iew.exec_refs                     9957723                       # number of memory reference insts executed
system.cpu0.iew.exec_branches                 4436935                       # Number of branches executed
system.cpu0.iew.exec_stores                   1921107                       # Number of stores executed
system.cpu0.iew.exec_rate                    2.109225                       # Inst execution rate
system.cpu0.iew.wb_sent                      64398675                       # cumulative count of insts sent to commit
system.cpu0.iew.wb_count                     64393272                       # cumulative count of insts written-back
system.cpu0.iew.wb_producers                 48126766                       # num instructions producing a value
system.cpu0.iew.wb_consumers                 83957819                       # num instructions consuming a value
system.cpu0.iew.wb_rate                      2.108856                       # insts written-back per cycle
system.cpu0.iew.wb_fanout                    0.573226                       # average fanout of values written-back
system.cpu0.commit.commitSquashedInsts        9195323                       # The number of squashed insts skipped by commit
system.cpu0.commit.commitNonSpecStalls             34                       # The number of times commit has been forced to stall to communicate backwards
system.cpu0.commit.branchMispredicts            95852                       # The number of times a branch was mispredicted
system.cpu0.commit.committed_per_cycle::samples     29344695                       # Number of insts commited each cycle
system.cpu0.commit.committed_per_cycle::mean     2.056748                       # Number of insts commited each cycle
system.cpu0.commit.committed_per_cycle::stdev     2.780980                       # Number of insts commited each cycle
system.cpu0.commit.committed_per_cycle::underflows            0      0.00%      0.00% # Number of insts commited each cycle
system.cpu0.commit.committed_per_cycle::0     12707683     43.30%     43.30% # Number of insts commited each cycle
system.cpu0.commit.committed_per_cycle::1      6652458     22.67%     65.97% # Number of insts commited each cycle
system.cpu0.commit.committed_per_cycle::2       934938      3.19%     69.16% # Number of insts commited each cycle
system.cpu0.commit.committed_per_cycle::3      2538889      8.65%     77.81% # Number of insts commited each cycle
system.cpu0.commit.committed_per_cycle::4      1290999      4.40%     82.21% # Number of insts commited each cycle
system.cpu0.commit.committed_per_cycle::5       496550      1.69%     83.90% # Number of insts commited each cycle
system.cpu0.commit.committed_per_cycle::6       367128      1.25%     85.16% # Number of insts commited each cycle
system.cpu0.commit.committed_per_cycle::7       482269      1.64%     86.80% # Number of insts commited each cycle
system.cpu0.commit.committed_per_cycle::8      3873781     13.20%    100.00% # Number of insts commited each cycle
system.cpu0.commit.committed_per_cycle::overflows            0      0.00%    100.00% # Number of insts commited each cycle
system.cpu0.commit.committed_per_cycle::min_value            0                       # Number of insts commited each cycle
system.cpu0.commit.committed_per_cycle::max_value            8                       # Number of insts commited each cycle
system.cpu0.commit.committed_per_cycle::total     29344695                       # Number of insts commited each cycle
system.cpu0.commit.committedInsts            33976392                       # Number of instructions committed
system.cpu0.commit.committedOps              60354646                       # Number of ops (including micro ops) committed
system.cpu0.commit.swp_count                        0                       # Number of s/w prefetches committed
system.cpu0.commit.refs                       9286080                       # Number of memory references committed
system.cpu0.commit.loads                      7366995                       # Number of loads committed
system.cpu0.commit.membars                         20                       # Number of memory barriers committed
system.cpu0.commit.branches                   4343539                       # Number of branches committed
system.cpu0.commit.vec_insts                        0                       # Number of committed Vector instructions.
system.cpu0.commit.fp_insts                  29732906                       # Number of committed floating point instructions.
system.cpu0.commit.int_insts                 38605037                       # Number of committed integer instructions.
system.cpu0.commit.function_calls              545863                       # Number of function calls committed.
system.cpu0.commit.op_class_0::No_OpClass        10494      0.02%      0.02% # Class of committed instruction
system.cpu0.commit.op_class_0::IntAlu        32412246     53.70%     53.72% # Class of committed instruction
system.cpu0.commit.op_class_0::IntMult             22      0.00%     53.72% # Class of committed instruction
system.cpu0.commit.op_class_0::IntDiv               7      0.00%     53.72% # Class of committed instruction
system.cpu0.commit.op_class_0::FloatAdd      18645797     30.89%     84.61% # Class of committed instruction
system.cpu0.commit.op_class_0::FloatCmp             0      0.00%     84.61% # Class of committed instruction
system.cpu0.commit.op_class_0::FloatCvt             0      0.00%     84.61% # Class of committed instruction
system.cpu0.commit.op_class_0::FloatMult            0      0.00%     84.61% # Class of committed instruction
system.cpu0.commit.op_class_0::FloatMultAcc            0      0.00%     84.61% # Class of committed instruction
system.cpu0.commit.op_class_0::FloatDiv             0      0.00%     84.61% # Class of committed instruction
system.cpu0.commit.op_class_0::FloatMisc            0      0.00%     84.61% # Class of committed instruction
system.cpu0.commit.op_class_0::FloatSqrt            0      0.00%     84.61% # Class of committed instruction
system.cpu0.commit.op_class_0::SimdAdd              0      0.00%     84.61% # Class of committed instruction
system.cpu0.commit.op_class_0::SimdAddAcc            0      0.00%     84.61% # Class of committed instruction
system.cpu0.commit.op_class_0::SimdAlu              0      0.00%     84.61% # Class of committed instruction
system.cpu0.commit.op_class_0::SimdCmp              0      0.00%     84.61% # Class of committed instruction
system.cpu0.commit.op_class_0::SimdCvt              0      0.00%     84.61% # Class of committed instruction
system.cpu0.commit.op_class_0::SimdMisc             0      0.00%     84.61% # Class of committed instruction
system.cpu0.commit.op_class_0::SimdMult             0      0.00%     84.61% # Class of committed instruction
system.cpu0.commit.op_class_0::SimdMultAcc            0      0.00%     84.61% # Class of committed instruction
system.cpu0.commit.op_class_0::SimdShift            0      0.00%     84.61% # Class of committed instruction
system.cpu0.commit.op_class_0::SimdShiftAcc            0      0.00%     84.61% # Class of committed instruction
system.cpu0.commit.op_class_0::SimdSqrt             0      0.00%     84.61% # Class of committed instruction
system.cpu0.commit.op_class_0::SimdFloatAdd            0      0.00%     84.61% # Class of committed instruction
system.cpu0.commit.op_class_0::SimdFloatAlu            0      0.00%     84.61% # Class of committed instruction
system.cpu0.commit.op_class_0::SimdFloatCmp            0      0.00%     84.61% # Class of committed instruction
system.cpu0.commit.op_class_0::SimdFloatCvt            0      0.00%     84.61% # Class of committed instruction
system.cpu0.commit.op_class_0::SimdFloatDiv            0      0.00%     84.61% # Class of committed instruction
system.cpu0.commit.op_class_0::SimdFloatMisc            0      0.00%     84.61% # Class of committed instruction
system.cpu0.commit.op_class_0::SimdFloatMult            0      0.00%     84.61% # Class of committed instruction
system.cpu0.commit.op_class_0::SimdFloatMultAcc            0      0.00%     84.61% # Class of committed instruction
system.cpu0.commit.op_class_0::SimdFloatSqrt            0      0.00%     84.61% # Class of committed instruction
system.cpu0.commit.op_class_0::MemRead        2002058      3.32%     87.93% # Class of committed instruction
system.cpu0.commit.op_class_0::MemWrite       1291314      2.14%     90.07% # Class of committed instruction
system.cpu0.commit.op_class_0::FloatMemRead      5364937      8.89%     98.96% # Class of committed instruction
system.cpu0.commit.op_class_0::FloatMemWrite       627771      1.04%    100.00% # Class of committed instruction
system.cpu0.commit.op_class_0::IprAccess            0      0.00%    100.00% # Class of committed instruction
system.cpu0.commit.op_class_0::InstPrefetch            0      0.00%    100.00% # Class of committed instruction
system.cpu0.commit.op_class_0::total         60354646                       # Class of committed instruction
system.cpu0.commit.bw_lim_events              3873781                       # number cycles where commit BW limit reached
system.cpu0.rob.rob_reads                    95020883                       # The number of ROB reads
system.cpu0.rob.rob_writes                  140276015                       # The number of ROB writes
system.cpu0.timesIdled                            118                       # Number of times that the entire CPU went into an idle state and unscheduled itself
system.cpu0.idleCycles                          13971                       # Total number of cycles that the CPU has spent unscheduled due to idling
system.cpu0.committedInsts                   33976392                       # Number of Instructions Simulated
system.cpu0.committedOps                     60354646                       # Number of Ops (including micro ops) Simulated
system.cpu0.cpi                              0.898703                       # CPI: Cycles Per Instruction
system.cpu0.cpi_total                        0.898703                       # CPI: Total CPI of All Threads
system.cpu0.ipc                              1.112715                       # IPC: Instructions Per Cycle
system.cpu0.ipc_total                        1.112715                       # IPC: Total IPC of All Threads
system.cpu0.int_regfile_reads                52932836                       # number of integer regfile reads
system.cpu0.int_regfile_writes               27448713                       # number of integer regfile writes
system.cpu0.fp_regfile_reads                 56390393                       # number of floating regfile reads
system.cpu0.fp_regfile_writes                28941858                       # number of floating regfile writes
system.cpu0.cc_regfile_reads                 19621135                       # number of cc regfile reads
system.cpu0.cc_regfile_writes                13928273                       # number of cc regfile writes
system.cpu0.misc_regfile_reads               22058706                       # number of misc regfile reads
system.cpu0.dcache.tags.pwrStateResidencyTicks::UNDEFINED  15267344125                       # Cumulative time (in ticks) in various power states
system.cpu0.dcache.tags.replacements            43786                       # number of replacements
system.cpu0.dcache.tags.tagsinuse                 512                       # Cycle average of tags in use
system.cpu0.dcache.tags.total_refs            1088639                       # Total number of references to valid blocks.
system.cpu0.dcache.tags.sampled_refs            43786                       # Sample count of references to valid blocks.
system.cpu0.dcache.tags.avg_refs            24.862719                       # Average number of references to valid blocks.
system.cpu0.dcache.tags.warmup_cycle                0                       # Cycle when the warmup percentage was hit.
system.cpu0.dcache.tags.occ_blocks::cpu0.data          512                       # Average occupied blocks per requestor
system.cpu0.dcache.tags.occ_percent::cpu0.data            1                       # Average percentage of cache occupancy
system.cpu0.dcache.tags.occ_percent::total            1                       # Average percentage of cache occupancy
system.cpu0.dcache.tags.occ_task_id_blocks::1024          512                       # Occupied blocks per task id
system.cpu0.dcache.tags.age_task_id_blocks_1024::0            8                       # Occupied blocks per task id
system.cpu0.dcache.tags.age_task_id_blocks_1024::1           85                       # Occupied blocks per task id
system.cpu0.dcache.tags.age_task_id_blocks_1024::2          203                       # Occupied blocks per task id
system.cpu0.dcache.tags.age_task_id_blocks_1024::3            4                       # Occupied blocks per task id
system.cpu0.dcache.tags.age_task_id_blocks_1024::4          212                       # Occupied blocks per task id
system.cpu0.dcache.tags.occ_task_id_percent::1024            1                       # Percentage of cache occupancy per task id
system.cpu0.dcache.tags.tag_accesses         38495598                       # Number of tag accesses
system.cpu0.dcache.tags.data_accesses        38495598                       # Number of data accesses
system.cpu0.dcache.pwrStateResidencyTicks::UNDEFINED  15267344125                       # Cumulative time (in ticks) in various power states
system.cpu0.dcache.ReadReq_hits::cpu0.data      7446578                       # number of ReadReq hits
system.cpu0.dcache.ReadReq_hits::total        7446578                       # number of ReadReq hits
system.cpu0.dcache.WriteReq_hits::cpu0.data      1907505                       # number of WriteReq hits
system.cpu0.dcache.WriteReq_hits::total       1907505                       # number of WriteReq hits
system.cpu0.dcache.demand_hits::cpu0.data      9354083                       # number of demand (read+write) hits
system.cpu0.dcache.demand_hits::total         9354083                       # number of demand (read+write) hits
system.cpu0.dcache.overall_hits::cpu0.data      9354083                       # number of overall hits
system.cpu0.dcache.overall_hits::total        9354083                       # number of overall hits
system.cpu0.dcache.ReadReq_misses::cpu0.data       247290                       # number of ReadReq misses
system.cpu0.dcache.ReadReq_misses::total       247290                       # number of ReadReq misses
system.cpu0.dcache.WriteReq_misses::cpu0.data        11580                       # number of WriteReq misses
system.cpu0.dcache.WriteReq_misses::total        11580                       # number of WriteReq misses
system.cpu0.dcache.demand_misses::cpu0.data       258870                       # number of demand (read+write) misses
system.cpu0.dcache.demand_misses::total        258870                       # number of demand (read+write) misses
system.cpu0.dcache.overall_misses::cpu0.data       258870                       # number of overall misses
system.cpu0.dcache.overall_misses::total       258870                       # number of overall misses
system.cpu0.dcache.ReadReq_miss_latency::cpu0.data  17094437000                       # number of ReadReq miss cycles
system.cpu0.dcache.ReadReq_miss_latency::total  17094437000                       # number of ReadReq miss cycles
system.cpu0.dcache.WriteReq_miss_latency::cpu0.data    948525000                       # number of WriteReq miss cycles
system.cpu0.dcache.WriteReq_miss_latency::total    948525000                       # number of WriteReq miss cycles
system.cpu0.dcache.demand_miss_latency::cpu0.data  18042962000                       # number of demand (read+write) miss cycles
system.cpu0.dcache.demand_miss_latency::total  18042962000                       # number of demand (read+write) miss cycles
system.cpu0.dcache.overall_miss_latency::cpu0.data  18042962000                       # number of overall miss cycles
system.cpu0.dcache.overall_miss_latency::total  18042962000                       # number of overall miss cycles
system.cpu0.dcache.ReadReq_accesses::cpu0.data      7693868                       # number of ReadReq accesses(hits+misses)
system.cpu0.dcache.ReadReq_accesses::total      7693868                       # number of ReadReq accesses(hits+misses)
system.cpu0.dcache.WriteReq_accesses::cpu0.data      1919085                       # number of WriteReq accesses(hits+misses)
system.cpu0.dcache.WriteReq_accesses::total      1919085                       # number of WriteReq accesses(hits+misses)
system.cpu0.dcache.demand_accesses::cpu0.data      9612953                       # number of demand (read+write) accesses
system.cpu0.dcache.demand_accesses::total      9612953                       # number of demand (read+write) accesses
system.cpu0.dcache.overall_accesses::cpu0.data      9612953                       # number of overall (read+write) accesses
system.cpu0.dcache.overall_accesses::total      9612953                       # number of overall (read+write) accesses
system.cpu0.dcache.ReadReq_miss_rate::cpu0.data     0.032141                       # miss rate for ReadReq accesses
system.cpu0.dcache.ReadReq_miss_rate::total     0.032141                       # miss rate for ReadReq accesses
system.cpu0.dcache.WriteReq_miss_rate::cpu0.data     0.006034                       # miss rate for WriteReq accesses
system.cpu0.dcache.WriteReq_miss_rate::total     0.006034                       # miss rate for WriteReq accesses
system.cpu0.dcache.demand_miss_rate::cpu0.data     0.026929                       # miss rate for demand accesses
system.cpu0.dcache.demand_miss_rate::total     0.026929                       # miss rate for demand accesses
system.cpu0.dcache.overall_miss_rate::cpu0.data     0.026929                       # miss rate for overall accesses
system.cpu0.dcache.overall_miss_rate::total     0.026929                       # miss rate for overall accesses
system.cpu0.dcache.ReadReq_avg_miss_latency::cpu0.data 69127.085608                       # average ReadReq miss latency
system.cpu0.dcache.ReadReq_avg_miss_latency::total 69127.085608                       # average ReadReq miss latency
system.cpu0.dcache.WriteReq_avg_miss_latency::cpu0.data 81910.621762                       # average WriteReq miss latency
system.cpu0.dcache.WriteReq_avg_miss_latency::total 81910.621762                       # average WriteReq miss latency
system.cpu0.dcache.demand_avg_miss_latency::cpu0.data 69698.929965                       # average overall miss latency
system.cpu0.dcache.demand_avg_miss_latency::total 69698.929965                       # average overall miss latency
system.cpu0.dcache.overall_avg_miss_latency::cpu0.data 69698.929965                       # average overall miss latency
system.cpu0.dcache.overall_avg_miss_latency::total 69698.929965                       # average overall miss latency
system.cpu0.dcache.blocked_cycles::no_mshrs         1834                       # number of cycles access was blocked
system.cpu0.dcache.blocked_cycles::no_targets            0                       # number of cycles access was blocked
system.cpu0.dcache.blocked::no_mshrs               29                       # number of cycles access was blocked
system.cpu0.dcache.blocked::no_targets              0                       # number of cycles access was blocked
system.cpu0.dcache.avg_blocked_cycles::no_mshrs    63.241379                       # average number of cycles each access was blocked
system.cpu0.dcache.avg_blocked_cycles::no_targets          nan                       # average number of cycles each access was blocked
system.cpu0.dcache.writebacks::writebacks        23719                       # number of writebacks
system.cpu0.dcache.writebacks::total            23719                       # number of writebacks
system.cpu0.dcache.ReadReq_mshr_hits::cpu0.data       215085                       # number of ReadReq MSHR hits
system.cpu0.dcache.ReadReq_mshr_hits::total       215085                       # number of ReadReq MSHR hits
system.cpu0.dcache.WriteReq_mshr_hits::cpu0.data            1                       # number of WriteReq MSHR hits
system.cpu0.dcache.WriteReq_mshr_hits::total            1                       # number of WriteReq MSHR hits
system.cpu0.dcache.demand_mshr_hits::cpu0.data       215086                       # number of demand (read+write) MSHR hits
system.cpu0.dcache.demand_mshr_hits::total       215086                       # number of demand (read+write) MSHR hits
system.cpu0.dcache.overall_mshr_hits::cpu0.data       215086                       # number of overall MSHR hits
system.cpu0.dcache.overall_mshr_hits::total       215086                       # number of overall MSHR hits
system.cpu0.dcache.ReadReq_mshr_misses::cpu0.data        32205                       # number of ReadReq MSHR misses
system.cpu0.dcache.ReadReq_mshr_misses::total        32205                       # number of ReadReq MSHR misses
system.cpu0.dcache.WriteReq_mshr_misses::cpu0.data        11579                       # number of WriteReq MSHR misses
system.cpu0.dcache.WriteReq_mshr_misses::total        11579                       # number of WriteReq MSHR misses
system.cpu0.dcache.demand_mshr_misses::cpu0.data        43784                       # number of demand (read+write) MSHR misses
[...]
system.l2.ReadSharedReq_miss_rate::total     0.964602                       # miss rate for ReadSharedReq accesses
system.l2.demand_miss_rate::cpu0.inst        0.805556                       # miss rate for demand accesses
system.l2.demand_miss_rate::cpu0.data        0.973758                       # miss rate for demand accesses
system.l2.demand_miss_rate::total            0.972795                       # miss rate for demand accesses
system.l2.overall_miss_rate::cpu0.inst       0.805556                       # miss rate for overall accesses
system.l2.overall_miss_rate::cpu0.data       0.973758                       # miss rate for overall accesses
system.l2.overall_miss_rate::total           0.972795                       # miss rate for overall accesses
system.l2.ReadExReq_avg_miss_latency::cpu0.data 79462.229905                       # average ReadExReq miss latency
system.l2.ReadExReq_avg_miss_latency::total 79462.229905                       # average ReadExReq miss latency
system.l2.ReadCleanReq_avg_miss_latency::cpu0.inst 87014.778325                       # average ReadCleanReq miss latency
system.l2.ReadCleanReq_avg_miss_latency::total 87014.778325                       # average ReadCleanReq miss latency
system.l2.ReadSharedReq_avg_miss_latency::cpu0.data 85389.071302                       # average ReadSharedReq miss latency
system.l2.ReadSharedReq_avg_miss_latency::total 85389.071302                       # average ReadSharedReq miss latency
system.l2.demand_avg_miss_latency::cpu0.inst 87014.778325                       # average overall miss latency
system.l2.demand_avg_miss_latency::cpu0.data 83780.684883                       # average overall miss latency
system.l2.demand_avg_miss_latency::total 83796.010551                       # average overall miss latency
system.l2.overall_avg_miss_latency::cpu0.inst 87014.778325                       # average overall miss latency
system.l2.overall_avg_miss_latency::cpu0.data 83780.684883                       # average overall miss latency
system.l2.overall_avg_miss_latency::total 83796.010551                       # average overall miss latency
system.l2.blocked_cycles::no_mshrs                  0                       # number of cycles access was blocked
system.l2.blocked_cycles::no_targets                0                       # number of cycles access was blocked
system.l2.blocked::no_mshrs                         0                       # number of cycles access was blocked
system.l2.blocked::no_targets                       0                       # number of cycles access was blocked
system.l2.avg_blocked_cycles::no_mshrs            nan                       # average number of cycles each access was blocked
system.l2.avg_blocked_cycles::no_targets          nan                       # average number of cycles each access was blocked
system.l2.ReadExReq_mshr_misses::cpu0.data        11570                       # number of ReadExReq MSHR misses
system.l2.ReadExReq_mshr_misses::total          11570                       # number of ReadExReq MSHR misses
system.l2.ReadCleanReq_mshr_misses::cpu0.inst          203                       # number of ReadCleanReq MSHR misses
system.l2.ReadCleanReq_mshr_misses::total          203                       # number of ReadCleanReq MSHR misses
system.l2.ReadSharedReq_mshr_misses::cpu0.data        31065                       # number of ReadSharedReq MSHR misses
system.l2.ReadSharedReq_mshr_misses::total        31065                       # number of ReadSharedReq MSHR misses
system.l2.demand_mshr_misses::cpu0.inst           203                       # number of demand (read+write) MSHR misses
system.l2.demand_mshr_misses::cpu0.data         42635                       # number of demand (read+write) MSHR misses
system.l2.demand_mshr_misses::total             42838                       # number of demand (read+write) MSHR misses
system.l2.overall_mshr_misses::cpu0.inst          203                       # number of overall MSHR misses
system.l2.overall_mshr_misses::cpu0.data        42635                       # number of overall MSHR misses
system.l2.overall_mshr_misses::total            42838                       # number of overall MSHR misses
system.l2.ReadExReq_mshr_miss_latency::cpu0.data    803678000                       # number of ReadExReq MSHR miss cycles
system.l2.ReadExReq_mshr_miss_latency::total    803678000                       # number of ReadExReq MSHR miss cycles
system.l2.ReadCleanReq_mshr_miss_latency::cpu0.inst     15634000                       # number of ReadCleanReq MSHR miss cycles
system.l2.ReadCleanReq_mshr_miss_latency::total     15634000                       # number of ReadCleanReq MSHR miss cycles
system.l2.ReadSharedReq_mshr_miss_latency::cpu0.data   2341941500                       # number of ReadSharedReq MSHR miss cycles
system.l2.ReadSharedReq_mshr_miss_latency::total   2341941500                       # number of ReadSharedReq MSHR miss cycles
system.l2.demand_mshr_miss_latency::cpu0.inst     15634000                       # number of demand (read+write) MSHR miss cycles
system.l2.demand_mshr_miss_latency::cpu0.data   3145619500                       # number of demand (read+write) MSHR miss cycles
system.l2.demand_mshr_miss_latency::total   3161253500                       # number of demand (read+write) MSHR miss cycles
system.l2.overall_mshr_miss_latency::cpu0.inst     15634000                       # number of overall MSHR miss cycles
system.l2.overall_mshr_miss_latency::cpu0.data   3145619500                       # number of overall MSHR miss cycles
system.l2.overall_mshr_miss_latency::total   3161253500                       # number of overall MSHR miss cycles
system.l2.ReadExReq_mshr_miss_rate::cpu0.data     0.999223                       # mshr miss rate for ReadExReq accesses
system.l2.ReadExReq_mshr_miss_rate::total     0.999223                       # mshr miss rate for ReadExReq accesses
system.l2.ReadCleanReq_mshr_miss_rate::cpu0.inst     0.805556                       # mshr miss rate for ReadCleanReq accesses
system.l2.ReadCleanReq_mshr_miss_rate::total     0.805556                       # mshr miss rate for ReadCleanReq accesses
system.l2.ReadSharedReq_mshr_miss_rate::cpu0.data     0.964602                       # mshr miss rate for ReadSharedReq accesses
system.l2.ReadSharedReq_mshr_miss_rate::total     0.964602                       # mshr miss rate for ReadSharedReq accesses
system.l2.demand_mshr_miss_rate::cpu0.inst     0.805556                       # mshr miss rate for demand accesses
system.l2.demand_mshr_miss_rate::cpu0.data     0.973758                       # mshr miss rate for demand accesses
system.l2.demand_mshr_miss_rate::total       0.972795                       # mshr miss rate for demand accesses
system.l2.overall_mshr_miss_rate::cpu0.inst     0.805556                       # mshr miss rate for overall accesses
system.l2.overall_mshr_miss_rate::cpu0.data     0.973758                       # mshr miss rate for overall accesses
system.l2.overall_mshr_miss_rate::total      0.972795                       # mshr miss rate for overall accesses
system.l2.ReadExReq_avg_mshr_miss_latency::cpu0.data 69462.229905                       # average ReadExReq mshr miss latency
system.l2.ReadExReq_avg_mshr_miss_latency::total 69462.229905                       # average ReadExReq mshr miss latency
system.l2.ReadCleanReq_avg_mshr_miss_latency::cpu0.inst 77014.778325                       # average ReadCleanReq mshr miss latency
system.l2.ReadCleanReq_avg_mshr_miss_latency::total 77014.778325                       # average ReadCleanReq mshr miss latency
system.l2.ReadSharedReq_avg_mshr_miss_latency::cpu0.data 75388.427491                       # average ReadSharedReq mshr miss latency
system.l2.ReadSharedReq_avg_mshr_miss_latency::total 75388.427491                       # average ReadSharedReq mshr miss latency
system.l2.demand_avg_mshr_miss_latency::cpu0.inst 77014.778325                       # average overall mshr miss latency
system.l2.demand_avg_mshr_miss_latency::cpu0.data 73780.215785                       # average overall mshr miss latency
system.l2.demand_avg_mshr_miss_latency::total 73795.543676                       # average overall mshr miss latency
system.l2.overall_avg_mshr_miss_latency::cpu0.inst 77014.778325                       # average overall mshr miss latency
system.l2.overall_avg_mshr_miss_latency::cpu0.data 73780.215785                       # average overall mshr miss latency
system.l2.overall_avg_mshr_miss_latency::total 73795.543676                       # average overall mshr miss latency
system.membus.snoop_filter.tot_requests         85891                       # Total number of requests made to the snoop filter.
system.membus.snoop_filter.hit_single_requests        43053                       # Number of requests hitting in the snoop filter with a single holder of the requested data.
system.membus.snoop_filter.hit_multi_requests            0                       # Number of requests hitting in the snoop filter with multiple (>1) holders of the requested data.
system.membus.snoop_filter.tot_snoops               0                       # Total number of snoops made to the snoop filter.
system.membus.snoop_filter.hit_single_snoops            0                       # Number of snoops hitting in the snoop filter with a single holder of the requested data.
system.membus.snoop_filter.hit_multi_snoops            0                       # Number of snoops hitting in the snoop filter with multiple (>1) holders of the requested data.
system.membus.pwrStateResidencyTicks::UNDEFINED  15267344125                       # Cumulative time (in ticks) in various power states
system.membus.trans_dist::ReadResp              31269                       # Transaction distribution
system.membus.trans_dist::CleanEvict            43053                       # Transaction distribution
system.membus.trans_dist::ReadExReq             11570                       # Transaction distribution
system.membus.trans_dist::ReadExResp            11570                       # Transaction distribution
system.membus.trans_dist::ReadSharedReq         31268                       # Transaction distribution
system.membus.pkt_count_system.l2.mem_side::system.mem_ctrls.port       128730                       # Packet count per connected master and slave (bytes)
system.membus.pkt_count_system.l2.mem_side::total       128730                       # Packet count per connected master and slave (bytes)
system.membus.pkt_count::total                 128730                       # Packet count per connected master and slave (bytes)
system.membus.pkt_size_system.l2.mem_side::system.mem_ctrls.port      2741696                       # Cumulative packet size per connected master and slave (bytes)
system.membus.pkt_size_system.l2.mem_side::total      2741696                       # Cumulative packet size per connected master and slave (bytes)
system.membus.pkt_size::total                 2741696                       # Cumulative packet size per connected master and slave (bytes)
system.membus.snoops                                0                       # Total snoops (count)
system.membus.snoopTraffic                          0                       # Total snoop traffic (bytes)
system.membus.snoop_fanout::samples             42838                       # Request fanout histogram
system.membus.snoop_fanout::mean                    0                       # Request fanout histogram
system.membus.snoop_fanout::stdev                   0                       # Request fanout histogram
system.membus.snoop_fanout::underflows              0      0.00%      0.00% # Request fanout histogram
system.membus.snoop_fanout::0                   42838    100.00%    100.00% # Request fanout histogram
system.membus.snoop_fanout::1                       0      0.00%    100.00% # Request fanout histogram
system.membus.snoop_fanout::overflows               0      0.00%    100.00% # Request fanout histogram
system.membus.snoop_fanout::min_value               0                       # Request fanout histogram
system.membus.snoop_fanout::max_value               0                       # Request fanout histogram
system.membus.snoop_fanout::total               42838                       # Request fanout histogram
system.membus.reqLayer12.occupancy           94662000                       # Layer occupancy (ticks)
system.membus.reqLayer12.utilization              0.6                       # Layer utilization (%)
system.membus.respLayer1.occupancy          225752750                       # Layer occupancy (ticks)
system.membus.respLayer1.utilization              1.5                       # Layer utilization (%)
system.tol2bus.snoop_filter.tot_requests        88074                       # Total number of requests made to the snoop filter.
system.tol2bus.snoop_filter.hit_single_requests        44038                       # Number of requests hitting in the snoop filter with a single holder of the requested data.
system.tol2bus.snoop_filter.hit_multi_requests            6                       # Number of requests hitting in the snoop filter with multiple (>1) holders of the requested data.
system.tol2bus.snoop_filter.tot_snoops              0                       # Total number of snoops made to the snoop filter.
system.tol2bus.snoop_filter.hit_single_snoops            0                       # Number of snoops hitting in the snoop filter with a single holder of the requested data.
system.tol2bus.snoop_filter.hit_multi_snoops            0                       # Number of snoops hitting in the snoop filter with multiple (>1) holders of the requested data.
system.tol2bus.pwrStateResidencyTicks::UNDEFINED  15267344125                       # Cumulative time (in ticks) in various power states
system.tol2bus.trans_dist::ReadResp             32459                       # Transaction distribution
system.tol2bus.trans_dist::WritebackDirty        23719                       # Transaction distribution
system.tol2bus.trans_dist::WritebackClean          252                       # Transaction distribution
system.tol2bus.trans_dist::CleanEvict           63120                       # Transaction distribution
system.tol2bus.trans_dist::ReadExReq            11579                       # Transaction distribution
system.tol2bus.trans_dist::ReadExResp           11579                       # Transaction distribution
system.tol2bus.trans_dist::ReadCleanReq           252                       # Transaction distribution
system.tol2bus.trans_dist::ReadSharedReq        32205                       # Transaction distribution
system.tol2bus.pkt_count_system.cpu0.icache.mem_side::system.l2.cpu_side          756                       # Packet count per connected master and slave (bytes)
system.tol2bus.pkt_count_system.cpu0.dcache.mem_side::system.l2.cpu_side       131356                       # Packet count per connected master and slave (bytes)
system.tol2bus.pkt_count::total                132112                       # Packet count per connected master and slave (bytes)
system.tol2bus.pkt_size_system.cpu0.icache.mem_side::system.l2.cpu_side        32256                       # Cumulative packet size per connected master and slave (bytes)
system.tol2bus.pkt_size_system.cpu0.dcache.mem_side::system.l2.cpu_side      4320320                       # Cumulative packet size per connected master and slave (bytes)
system.tol2bus.pkt_size::total                4352576                       # Cumulative packet size per connected master and slave (bytes)
system.tol2bus.snoops                           43053                       # Total snoops (count)
system.tol2bus.snoopTraffic                         0                       # Total snoop traffic (bytes)
system.tol2bus.snoop_fanout::samples            87089                       # Request fanout histogram
system.tol2bus.snoop_fanout::mean            0.000069                       # Request fanout histogram
system.tol2bus.snoop_fanout::stdev           0.008300                       # Request fanout histogram
system.tol2bus.snoop_fanout::underflows             0      0.00%      0.00% # Request fanout histogram
system.tol2bus.snoop_fanout::0                  87083     99.99%     99.99% # Request fanout histogram
system.tol2bus.snoop_fanout::1                      6      0.01%    100.00% # Request fanout histogram
system.tol2bus.snoop_fanout::2                      0      0.00%    100.00% # Request fanout histogram
system.tol2bus.snoop_fanout::3                      0      0.00%    100.00% # Request fanout histogram
system.tol2bus.snoop_fanout::4                      0      0.00%    100.00% # Request fanout histogram
system.tol2bus.snoop_fanout::5                      0      0.00%    100.00% # Request fanout histogram
system.tol2bus.snoop_fanout::6                      0      0.00%    100.00% # Request fanout histogram
system.tol2bus.snoop_fanout::7                      0      0.00%    100.00% # Request fanout histogram
system.tol2bus.snoop_fanout::8                      0      0.00%    100.00% # Request fanout histogram
system.tol2bus.snoop_fanout::9                      0      0.00%    100.00% # Request fanout histogram
system.tol2bus.snoop_fanout::10                     0      0.00%    100.00% # Request fanout histogram
system.tol2bus.snoop_fanout::11                     0      0.00%    100.00% # Request fanout histogram
system.tol2bus.snoop_fanout::12                     0      0.00%    100.00% # Request fanout histogram
system.tol2bus.snoop_fanout::13                     0      0.00%    100.00% # Request fanout histogram
system.tol2bus.snoop_fanout::14                     0      0.00%    100.00% # Request fanout histogram
system.tol2bus.snoop_fanout::15                     0      0.00%    100.00% # Request fanout histogram
system.tol2bus.snoop_fanout::16                     0      0.00%    100.00% # Request fanout histogram
system.tol2bus.snoop_fanout::17                     0      0.00%    100.00% # Request fanout histogram
system.tol2bus.snoop_fanout::18                     0      0.00%    100.00% # Request fanout histogram
system.tol2bus.snoop_fanout::19                     0      0.00%    100.00% # Request fanout histogram
system.tol2bus.snoop_fanout::20                     0      0.00%    100.00% # Request fanout histogram
system.tol2bus.snoop_fanout::21                     0      0.00%    100.00% # Request fanout histogram
system.tol2bus.snoop_fanout::22                     0      0.00%    100.00% # Request fanout histogram
system.tol2bus.snoop_fanout::23                     0      0.00%    100.00% # Request fanout histogram
system.tol2bus.snoop_fanout::24                     0      0.00%    100.00% # Request fanout histogram
system.tol2bus.snoop_fanout::overflows              0      0.00%    100.00% # Request fanout histogram
system.tol2bus.snoop_fanout::min_value              0                       # Request fanout histogram
system.tol2bus.snoop_fanout::max_value              1                       # Request fanout histogram
system.tol2bus.snoop_fanout::total              87089                       # Request fanout histogram
system.tol2bus.reqLayer0.occupancy           68008000                       # Layer occupancy (ticks)
system.tol2bus.reqLayer0.utilization              0.4                       # Layer utilization (%)
system.tol2bus.respLayer0.occupancy            378000                       # Layer occupancy (ticks)
system.tol2bus.respLayer0.utilization             0.0                       # Layer utilization (%)
system.tol2bus.respLayer1.occupancy          65679499                       # Layer occupancy (ticks)
system.tol2bus.respLayer1.utilization             0.4                       # Layer utilization (%)

---------- End Simulation Statistics   ----------
