
---------- Begin Simulation Statistics ----------
sim_seconds                                  0.015267                       # Number of seconds simulated
sim_ticks                                 15267344125                       # Number of ticks simulated
final_tick                               3801568687125                       # Number of ticks from beginning of simulation (restored from checkpoints and never reset)
sim_freq                                 1000000000000                       # Frequency of simulated ticks
host_inst_rate                               41719675                       # Simulator instruction rate (inst/s)
host_op_rate                                 77675180                       # Simulator op (including micro ops) rate (op/s)
host_tick_rate                              107183147                       # Simulator tick rate (ticks/s)
host_mem_usage                                3428912                       # Number of bytes of host memory used
host_seconds                                   142.44                       # Real time elapsed on the host
sim_insts                                  5942617764                       # Number of instructions simulated
sim_ops                                   11064179246                       # Number of ops (including micro ops) simulated
system.voltage_domain.voltage                       1                       # Voltage in Volts
system.clk_domain.clock                          1000                       # Clock period in ticks
system.mem_ctrls.pwrStateResidencyTicks::UNDEFINED  15267344125                       # Cumulative time (in ticks) in various power states
system.mem_ctrls.bytes_read::cpu0.inst             64                       # Number of bytes read from this memory
system.mem_ctrls.bytes_read::cpu0.data        5440896                       # Number of bytes read from this memory
system.mem_ctrls.bytes_read::total            5440960                       # Number of bytes read from this memory
system.mem_ctrls.bytes_inst_read::cpu0.inst           64                       # Number of instructions bytes read from this memory
system.mem_ctrls.bytes_inst_read::total            64                       # Number of instructions bytes read from this memory
system.mem_ctrls.bytes_written::writebacks       207168                       # Number of bytes written to this memory
system.mem_ctrls.bytes_written::total          207168                       # Number of bytes written to this memory
system.mem_ctrls.num_reads::cpu0.inst               1                       # Number of read requests responded to by this memory
system.mem_ctrls.num_reads::cpu0.data           85014                       # Number of read requests responded to by this memory
system.mem_ctrls.num_reads::total               85015                       # Number of read requests responded to by this memory
system.mem_ctrls.num_writes::writebacks          3237                       # Number of write requests responded to by this memory
system.mem_ctrls.num_writes::total               3237                       # Number of write requests responded to by this memory
system.mem_ctrls.bw_read::cpu0.inst              4192                       # Total read bandwidth from this memory (bytes/s)
system.mem_ctrls.bw_read::cpu0.data         356374754                       # Total read bandwidth from this memory (bytes/s)
system.mem_ctrls.bw_read::total             356378946                       # Total read bandwidth from this memory (bytes/s)
system.mem_ctrls.bw_inst_read::cpu0.inst         4192                       # Instruction read bandwidth from this memory (bytes/s)
system.mem_ctrls.bw_inst_read::total             4192                       # Instruction read bandwidth from this memory (bytes/s)
system.mem_ctrls.bw_write::writebacks        13569354                       # Write bandwidth from this memory (bytes/s)
system.mem_ctrls.bw_write::total             13569354                       # Write bandwidth from this memory (bytes/s)
system.mem_ctrls.bw_total::writebacks        13569354                       # Total bandwidth to/from this memory (bytes/s)
system.mem_ctrls.bw_total::cpu0.inst             4192                       # Total bandwidth to/from this memory (bytes/s)
system.mem_ctrls.bw_total::cpu0.data        356374754                       # Total bandwidth to/from this memory (bytes/s)
system.mem_ctrls.bw_total::total            369948300                       # Total bandwidth to/from this memory (bytes/s)
system.mem_ctrls.readReqs                       85015                       # Number of read requests accepted
system.mem_ctrls.writeReqs                       3237                       # Number of write requests accepted
system.mem_ctrls.readBursts                     85015                       # Number of DRAM read bursts, including those serviced by the write queue
system.mem_ctrls.writeBursts                     3237                       # Number of DRAM write bursts, including those merged in the write queue
system.mem_ctrls.bytesReadDRAM                5430848                       # Total number of bytes read from DRAM
system.mem_ctrls.bytesReadWrQ                   10112                       # Total number of bytes read from write queue
system.mem_ctrls.bytesWritten                  207552                       # Total number of bytes written to DRAM
system.mem_ctrls.bytesReadSys                 5440960                       # Total read bytes from the system interface side
system.mem_ctrls.bytesWrittenSys               207168                       # Total written bytes from the system interface side
system.mem_ctrls.servicedByWrQ                    158                       # Number of DRAM read bursts serviced by the write queue
system.mem_ctrls.mergedWrBursts                     0                       # Number of DRAM write bursts merged with an existing one
system.mem_ctrls.neitherReadNorWriteReqs            0                       # Number of requests that are neither read nor write
system.mem_ctrls.perBankRdBursts::0              5200                       # Per bank write bursts
system.mem_ctrls.perBankRdBursts::1              5308                       # Per bank write bursts
system.mem_ctrls.perBankRdBursts::2              5169                       # Per bank write bursts
system.mem_ctrls.perBankRdBursts::3              5291                       # Per bank write bursts
system.mem_ctrls.perBankRdBursts::4              5380                       # Per bank write bursts
system.mem_ctrls.perBankRdBursts::5              4861                       # Per bank write bursts
system.mem_ctrls.perBankRdBursts::6              5038                       # Per bank write bursts
system.mem_ctrls.perBankRdBursts::7              4836                       # Per bank write bursts
system.mem_ctrls.perBankRdBursts::8              4868                       # Per bank write bursts
system.mem_ctrls.perBankRdBursts::9              4835                       # Per bank write bursts
system.mem_ctrls.perBankRdBursts::10             4802                       # Per bank write bursts
system.mem_ctrls.perBankRdBursts::11             4823                       # Per bank write bursts
system.mem_ctrls.perBankRdBursts::12             6047                       # Per bank write bursts
system.mem_ctrls.perBankRdBursts::13             6449                       # Per bank write bursts
system.mem_ctrls.perBankRdBursts::14             5927                       # Per bank write bursts
system.mem_ctrls.perBankRdBursts::15             6023                       # Per bank write bursts
system.mem_ctrls.perBankWrBursts::0               180                       # Per bank write bursts
system.mem_ctrls.perBankWrBursts::1               209                       # Per bank write bursts
system.mem_ctrls.perBankWrBursts::2               270                       # Per bank write bursts
system.mem_ctrls.perBankWrBursts::3               323                       # Per bank write bursts
system.mem_ctrls.perBankWrBursts::4               425                       # Per bank write bursts
system.mem_ctrls.perBankWrBursts::5               281                       # Per bank write bursts
system.mem_ctrls.perBankWrBursts::6               259                       # Per bank write bursts
system.mem_ctrls.perBankWrBursts::7               185                       # Per bank write bursts
system.mem_ctrls.perBankWrBursts::8                85                       # Per bank write bursts
system.mem_ctrls.perBankWrBursts::9               172                       # Per bank write bursts
system.mem_ctrls.perBankWrBursts::10              119                       # Per bank write bursts
system.mem_ctrls.perBankWrBursts::11              125                       # Per bank write bursts
system.mem_ctrls.perBankWrBursts::12              127                       # Per bank write bursts
system.mem_ctrls.perBankWrBursts::13              131                       # Per bank write bursts
system.mem_ctrls.perBankWrBursts::14              115                       # Per bank write bursts
system.mem_ctrls.perBankWrBursts::15              237                       # Per bank write bursts
system.mem_ctrls.numRdRetry                         0                       # Number of times read queue was full causing retry
system.mem_ctrls.numWrRetry                         0                       # Number of times write queue was full causing retry
system.mem_ctrls.totGap                   15266791000                       # Total gap between requests
system.mem_ctrls.readPktSize::0                     0                       # Read request sizes (log2)
system.mem_ctrls.readPktSize::1                     0                       # Read request sizes (log2)
system.mem_ctrls.readPktSize::2                     0                       # Read request sizes (log2)
system.mem_ctrls.readPktSize::3                     0                       # Read request sizes (log2)
system.mem_ctrls.readPktSize::4                     0                       # Read request sizes (log2)
system.mem_ctrls.readPktSize::5                     0                       # Read request sizes (log2)
system.mem_ctrls.readPktSize::6                 85015                       # Read request sizes (log2)
system.mem_ctrls.writePktSize::0                    0                       # Write request sizes (log2)
system.mem_ctrls.writePktSize::1                    0                       # Write request sizes (log2)
system.mem_ctrls.writePktSize::2                    0                       # Write request sizes (log2)
system.mem_ctrls.writePktSize::3                    0                       # Write request sizes (log2)
system.mem_ctrls.writePktSize::4                    0                       # Write request sizes (log2)
system.mem_ctrls.writePktSize::5                    0                       # Write request sizes (log2)
system.mem_ctrls.writePktSize::6                 3237                       # Write request sizes (log2)
system.mem_ctrls.rdQLenPdf::0                   69029                       # What read queue length does an incoming req see
system.mem_ctrls.rdQLenPdf::1                   14491                       # What read queue length does an incoming req see
system.mem_ctrls.rdQLenPdf::2                    1257                       # What read queue length does an incoming req see
system.mem_ctrls.rdQLenPdf::3                      80                       # What read queue length does an incoming req see
system.mem_ctrls.rdQLenPdf::4                       0                       # What read queue length does an incoming req see
system.mem_ctrls.rdQLenPdf::5                       0                       # What read queue length does an incoming req see
system.mem_ctrls.rdQLenPdf::6                       0                       # What read queue length does an incoming req see
system.mem_ctrls.rdQLenPdf::7                       0                       # What read queue length does an incoming req see
system.mem_ctrls.rdQLenPdf::8                       0                       # What read queue length does an incoming req see
system.mem_ctrls.rdQLenPdf::9                       0                       # What read queue length does an incoming req see
system.mem_ctrls.rdQLenPdf::10                      0                       # What read queue length does an incoming req see
system.mem_ctrls.rdQLenPdf::11                      0                       # What read queue length does an incoming req see
system.mem_ctrls.rdQLenPdf::12                      0                       # What read queue length does an incoming req see
system.mem_ctrls.rdQLenPdf::13                      0                       # What read queue length does an incoming req see
system.mem_ctrls.rdQLenPdf::14                      0                       # What read queue length does an incoming req see
system.mem_ctrls.rdQLenPdf::15                      0                       # What read queue length does an incoming req see
system.mem_ctrls.rdQLenPdf::16                      0                       # What read queue length does an incoming req see
system.mem_ctrls.rdQLenPdf::17                      0                       # What read queue length does an incoming req see
system.mem_ctrls.rdQLenPdf::18                      0                       # What read queue length does an incoming req see
system.mem_ctrls.rdQLenPdf::19                      0                       # What read queue length does an incoming req see
system.mem_ctrls.rdQLenPdf::20                      0                       # What read queue length does an incoming req see
system.mem_ctrls.rdQLenPdf::21                      0                       # What read queue length does an incoming req see
system.mem_ctrls.rdQLenPdf::22                      0                       # What read queue length does an incoming req see
system.mem_ctrls.rdQLenPdf::23                      0                       # What read queue length does an incoming req see
system.mem_ctrls.rdQLenPdf::24                      0                       # What read queue length does an incoming req see
system.mem_ctrls.rdQLenPdf::25                      0                       # What read queue length does an incoming req see
system.mem_ctrls.rdQLenPdf::26                      0                       # What read queue length does an incoming req see
system.mem_ctrls.rdQLenPdf::27                      0                       # What read queue length does an incoming req see
system.mem_ctrls.rdQLenPdf::28                      0                       # What read queue length does an incoming req see
system.mem_ctrls.rdQLenPdf::29                      0                       # What read queue length does an incoming req see
system.mem_ctrls.rdQLenPdf::30                      0                       # What read queue length does an incoming req see
system.mem_ctrls.rdQLenPdf::31                      0                       # What read queue length does an incoming req see
system.mem_ctrls.wrQLenPdf::0                       0                       # What write queue length does an incoming req see
system.mem_ctrls.wrQLenPdf::1                       0                       # What write queue length does an incoming req see
system.mem_ctrls.wrQLenPdf::2                       0                       # What write queue length does an incoming req see
system.mem_ctrls.wrQLenPdf::3                       0                       # What write queue length does an incoming req see
system.mem_ctrls.wrQLenPdf::4                       0                       # What write queue length does an incoming req see
system.mem_ctrls.wrQLenPdf::5                       0                       # What write queue length does an incoming req see
system.mem_ctrls.wrQLenPdf::6                       0                       # What write queue length does an incoming req see
system.mem_ctrls.wrQLenPdf::7                       0                       # What write queue length does an incoming req see
system.mem_ctrls.wrQLenPdf::8                       0                       # What write queue length does an incoming req see
system.mem_ctrls.wrQLenPdf::9                       0                       # What write queue length does an incoming req see
system.mem_ctrls.wrQLenPdf::10                      0                       # What write queue length does an incoming req see
system.mem_ctrls.wrQLenPdf::11                      0                       # What write queue length does an incoming req see
system.mem_ctrls.wrQLenPdf::12                      0                       # What write queue length does an incoming req see
system.mem_ctrls.wrQLenPdf::13                      0                       # What write queue length does an incoming req see
system.mem_ctrls.wrQLenPdf::14                      0                       # What write queue length does an incoming req see
system.mem_ctrls.wrQLenPdf::15                     32                       # What write queue length does an incoming req see
system.mem_ctrls.wrQLenPdf::16                     39                       # What write queue length does an incoming req see
system.mem_ctrls.wrQLenPdf::17                    190                       # What write queue length does an incoming req see
system.mem_ctrls.wrQLenPdf::18                    200                       # What write queue length does an incoming req see
system.mem_ctrls.wrQLenPdf::19                    198                       # What write queue length does an incoming req see
system.mem_ctrls.wrQLenPdf::20                    198                       # What write queue length does an incoming req see
system.mem_ctrls.wrQLenPdf::21                    198                       # What write queue length does an incoming req see
system.mem_ctrls.wrQLenPdf::22                    198                       # What write queue length does an incoming req see
system.mem_ctrls.wrQLenPdf::23                    197                       # What write queue length does an incoming req see
system.mem_ctrls.wrQLenPdf::24                    197                       # What write queue length does an incoming req see
system.mem_ctrls.wrQLenPdf::25                    197                       # What write queue length does an incoming req see
system.mem_ctrls.wrQLenPdf::26                    197                       # What write queue length does an incoming req see
system.mem_ctrls.wrQLenPdf::27                    198                       # What write queue length does an incoming req see
system.mem_ctrls.wrQLenPdf::28                    199                       # What write queue length does an incoming req see
system.mem_ctrls.wrQLenPdf::29                    199                       # What write queue length does an incoming req see
system.mem_ctrls.wrQLenPdf::30                    201                       # What write queue length does an incoming req see
system.mem_ctrls.wrQLenPdf::31                    199                       # What write queue length does an incoming req see
system.mem_ctrls.wrQLenPdf::32                    200                       # What write queue length does an incoming req see
system.mem_ctrls.wrQLenPdf::33                      0                       # What write queue length does an incoming req see
system.mem_ctrls.wrQLenPdf::34                      0                       # What write queue length does an incoming req see
system.mem_ctrls.wrQLenPdf::35                      0                       # What write queue length does an incoming req see
system.mem_ctrls.wrQLenPdf::36                      0                       # What write queue length does an incoming req see
system.mem_ctrls.wrQLenPdf::37                      0                       # What write queue length does an incoming req see
system.mem_ctrls.wrQLenPdf::38                      0                       # What write queue length does an incoming req see
system.mem_ctrls.wrQLenPdf::39                      0                       # What write queue length does an incoming req see
system.mem_ctrls.wrQLenPdf::40                      0                       # What write queue length does an incoming req see
system.mem_ctrls.wrQLenPdf::41                      0                       # What write queue length does an incoming req see
system.mem_ctrls.wrQLenPdf::42                      0                       # What write queue length does an incoming req see
system.mem_ctrls.wrQLenPdf::43                      0                       # What write queue length does an incoming req see
system.mem_ctrls.wrQLenPdf::44                      0                       # What write queue length does an incoming req see
system.mem_ctrls.wrQLenPdf::45                      0                       # What write queue length does an incoming req see
system.mem_ctrls.wrQLenPdf::46                      0                       # What write queue length does an incoming req see
system.mem_ctrls.wrQLenPdf::47                      0                       # What write queue length does an incoming req see
system.mem_ctrls.wrQLenPdf::48                      0                       # What write queue length does an incoming req see
system.mem_ctrls.wrQLenPdf::49                      0                       # What write queue length does an incoming req see
system.mem_ctrls.wrQLenPdf::50                      0                       # What write queue length does an incoming req see
system.mem_ctrls.wrQLenPdf::51                      0                       # What write queue length does an incoming req see
system.mem_ctrls.wrQLenPdf::52                      0                       # What write queue length does an incoming req see
system.mem_ctrls.wrQLenPdf::53                      0                       # What write queue length does an incoming req see
system.mem_ctrls.wrQLenPdf::54                      0                       # What write queue length does an incoming req see
system.mem_ctrls.wrQLenPdf::55                      0                       # What write queue length does an incoming req see
system.mem_ctrls.wrQLenPdf::56                      0                       # What write queue length does an incoming req see
system.mem_ctrls.wrQLenPdf::57                      0                       # What write queue length does an incoming req see
system.mem_ctrls.wrQLenPdf::58                      0                       # What write queue length does an incoming req see
system.mem_ctrls.wrQLenPdf::59                      0                       # What write queue length does an incoming req see
system.mem_ctrls.wrQLenPdf::60                      0                       # What write queue length does an incoming req see
system.mem_ctrls.wrQLenPdf::61                      0                       # What write queue length does an incoming req see
system.mem_ctrls.wrQLenPdf::62                      0                       # What write queue length does an incoming req see
system.mem_ctrls.wrQLenPdf::63                      0                       # What write queue length does an incoming req see
system.mem_ctrls.bytesPerActivate::samples        61745                       # Bytes accessed per row activation
system.mem_ctrls.bytesPerActivate::mean     91.325808                       # Bytes accessed per row activation
system.mem_ctrls.bytesPerActivate::gmean    82.530638                       # Bytes accessed per row activation
system.mem_ctrls.bytesPerActivate::stdev    49.524986                       # Bytes accessed per row activation
system.mem_ctrls.bytesPerActivate::64-127        43241     70.03%     70.03% # Bytes accessed per row activation
system.mem_ctrls.bytesPerActivate::128-191        12885     20.87%     90.90% # Bytes accessed per row activation
system.mem_ctrls.bytesPerActivate::192-255         3991      6.46%     97.36% # Bytes accessed per row activation
system.mem_ctrls.bytesPerActivate::256-319         1182      1.91%     99.28% # Bytes accessed per row activation
system.mem_ctrls.bytesPerActivate::320-383          328      0.53%     99.81% # Bytes accessed per row activation
system.mem_ctrls.bytesPerActivate::384-447           78      0.13%     99.94% # Bytes accessed per row activation
system.mem_ctrls.bytesPerActivate::448-511           32      0.05%     99.99% # Bytes accessed per row activation
system.mem_ctrls.bytesPerActivate::512-575            8      0.01%    100.00% # Bytes accessed per row activation
system.mem_ctrls.bytesPerActivate::total        61745                       # Bytes accessed per row activation
system.mem_ctrls.rdPerTurnAround::samples          198                       # Reads before turning the bus around for writes
system.mem_ctrls.rdPerTurnAround::mean     429.767677                       # Reads before turning the bus around for writes
system.mem_ctrls.rdPerTurnAround::gmean    412.293961                       # Reads before turning the bus around for writes
system.mem_ctrls.rdPerTurnAround::stdev    120.380305                       # Reads before turning the bus around for writes
system.mem_ctrls.rdPerTurnAround::128-159            2      1.01%      1.01% # Reads before turning the bus around for writes
system.mem_ctrls.rdPerTurnAround::192-223            5      2.53%      3.54% # Reads before turning the bus around for writes
system.mem_ctrls.rdPerTurnAround::224-255            4      2.02%      5.56% # Reads before turning the bus around for writes
system.mem_ctrls.rdPerTurnAround::256-287           10      5.05%     10.61% # Reads before turning the bus around for writes
system.mem_ctrls.rdPerTurnAround::288-319           17      8.59%     19.19% # Reads before turning the bus around for writes
system.mem_ctrls.rdPerTurnAround::320-351           19      9.60%     28.79% # Reads before turning the bus around for writes
system.mem_ctrls.rdPerTurnAround::352-383           16      8.08%     36.87% # Reads before turning the bus around for writes
system.mem_ctrls.rdPerTurnAround::384-415           19      9.60%     46.46% # Reads before turning the bus around for writes
system.mem_ctrls.rdPerTurnAround::416-447           20     10.10%     56.57% # Reads before turning the bus around for writes
system.mem_ctrls.rdPerTurnAround::448-479           25     12.63%     69.19% # Reads before turning the bus around for writes
system.mem_ctrls.rdPerTurnAround::480-511           18      9.09%     78.28% # Reads before turning the bus around for writes
system.mem_ctrls.rdPerTurnAround::512-543            7      3.54%     81.82% # Reads before turning the bus around for writes
system.mem_ctrls.rdPerTurnAround::544-575           12      6.06%     87.88% # Reads before turning the bus around for writes
system.mem_ctrls.rdPerTurnAround::576-607            5      2.53%     90.40% # Reads before turning the bus around for writes
system.mem_ctrls.rdPerTurnAround::608-639           10      5.05%     95.45% # Reads before turning the bus around for writes
system.mem_ctrls.rdPerTurnAround::640-671            2      1.01%     96.46% # Reads before turning the bus around for writes
system.mem_ctrls.rdPerTurnAround::672-703            4      2.02%     98.48% # Reads before turning the bus around for writes
system.mem_ctrls.rdPerTurnAround::736-767            2      1.01%     99.49% # Reads before turning the bus around for writes
system.mem_ctrls.rdPerTurnAround::768-799            1      0.51%    100.00% # Reads before turning the bus around for writes
system.mem_ctrls.rdPerTurnAround::total           198                       # Reads before turning the bus around for writes
system.mem_ctrls.wrPerTurnAround::samples          198                       # Writes before turning the bus around for reads
system.mem_ctrls.wrPerTurnAround::mean      16.378788                       # Writes before turning the bus around for reads
system.mem_ctrls.wrPerTurnAround::gmean     16.360592                       # Writes before turning the bus around for reads
system.mem_ctrls.wrPerTurnAround::stdev      0.795262                       # Writes before turning the bus around for reads
system.mem_ctrls.wrPerTurnAround::16              159     80.30%     80.30% # Writes before turning the bus around for reads
system.mem_ctrls.wrPerTurnAround::17                6      3.03%     83.33% # Writes before turning the bus around for reads
system.mem_ctrls.wrPerTurnAround::18               30     15.15%     98.48% # Writes before turning the bus around for reads
system.mem_ctrls.wrPerTurnAround::19                3      1.52%    100.00% # Writes before turning the bus around for reads
system.mem_ctrls.wrPerTurnAround::total           198                       # Writes before turning the bus around for reads
system.mem_ctrls.totQLat                   2444302000                       # Total ticks spent queuing
system.mem_ctrls.totMemAccLat              4035370750                       # Total ticks spent from burst creation until serviced by the DRAM
system.mem_ctrls.totBusLat                  424285000                       # Total ticks spent in databus transfers
system.mem_ctrls.avgQLat                     28804.95                       # Average queueing delay per DRAM burst
system.mem_ctrls.avgBusLat                    5000.00                       # Average bus latency per DRAM burst
system.mem_ctrls.avgMemAccLat                47554.95                       # Average memory access latency per DRAM burst
system.mem_ctrls.avgRdBW                       355.72                       # Average DRAM read bandwidth in MiByte/s
system.mem_ctrls.avgWrBW                        13.59                       # Average achieved write bandwidth in MiByte/s
system.mem_ctrls.avgRdBWSys                    356.38                       # Average system read bandwidth in MiByte/s
system.mem_ctrls.avgWrBWSys                     13.57                       # Average system write bandwidth in MiByte/s
system.mem_ctrls.peakBW                      12800.00                       # Theoretical peak bandwidth in MiByte/s
system.mem_ctrls.busUtil                         2.89                       # Data bus utilization in percentage
system.mem_ctrls.busUtilRead                     2.78                       # Data bus utilization in percentage for reads
system.mem_ctrls.busUtilWrite                    0.11                       # Data bus utilization in percentage for writes
system.mem_ctrls.avgRdQLen                       1.14                       # Average read queue length when enqueuing
system.mem_ctrls.avgWrQLen                      24.99                       # Average write queue length when enqueuing
system.mem_ctrls.readRowHits                    25636                       # Number of row buffer hits during reads
system.mem_ctrls.writeRowHits                     727                       # Number of row buffer hits during writes
system.mem_ctrls.readRowHitRate                 30.21                       # Row buffer hit rate for reads
system.mem_ctrls.writeRowHitRate                22.46                       # Row buffer hit rate for writes
system.mem_ctrls.avgGap                     172990.88                       # Average gap between requests
system.mem_ctrls.pageHitRate                    29.93                       # Row buffer hit rate, read and write combined
system.mem_ctrls_0.actEnergy                217277340                       # Energy for activate commands per rank (pJ)
system.mem_ctrls_0.preEnergy                115497030                       # Energy for precharge commands per rank (pJ)
system.mem_ctrls_0.readEnergy               293332620                       # Energy for read commands per rank (pJ)
system.mem_ctrls_0.writeEnergy               11129040                       # Energy for write commands per rank (pJ)
system.mem_ctrls_0.refreshEnergy         1226206800.000000                       # Energy for refresh commands per rank (pJ)
system.mem_ctrls_0.actBackEnergy            946508370                       # Energy for active background per rank (pJ)
system.mem_ctrls_0.preBackEnergy             33859680                       # Energy for precharge background per rank (pJ)
system.mem_ctrls_0.actPowerDownEnergy      4901143860                       # Energy for active power-down per rank (pJ)
system.mem_ctrls_0.prePowerDownEnergy       750062880                       # Energy for precharge power-down per rank (pJ)
system.mem_ctrls_0.selfRefreshEnergy        147336180                       # Energy for self refresh per rank (pJ)
system.mem_ctrls_0.totalEnergy             8642495760                       # Total energy per rank (pJ)
system.mem_ctrls_0.averagePower            566.077223                       # Core power per rank (mW)
system.mem_ctrls_0.totalIdleTime          13103293000                       # Total Idle time Per DRAM Rank
system.mem_ctrls_0.memoryStateTime::IDLE     34128000                       # Time in different power states
system.mem_ctrls_0.memoryStateTime::REF     519151375                       # Time in different power states
system.mem_ctrls_0.memoryStateTime::SREF    401886750                       # Time in different power states
system.mem_ctrls_0.memoryStateTime::PRE_PDN   1953241750                       # Time in different power states
system.mem_ctrls_0.memoryStateTime::ACT    1610771750                       # Time in different power states
system.mem_ctrls_0.memoryStateTime::ACT_PDN  10748164500                       # Time in different power states
system.mem_ctrls_1.actEnergy                223524840                       # Energy for activate commands per rank (pJ)
system.mem_ctrls_1.preEnergy                118825245                       # Energy for precharge commands per rank (pJ)
system.mem_ctrls_1.readEnergy               312546360                       # Energy for read commands per rank (pJ)
system.mem_ctrls_1.writeEnergy                5799420                       # Energy for write commands per rank (pJ)
system.mem_ctrls_1.refreshEnergy         1229894640.000000                       # Energy for refresh commands per rank (pJ)
system.mem_ctrls_1.actBackEnergy            993104730                       # Energy for active background per rank (pJ)
system.mem_ctrls_1.preBackEnergy             33349920                       # Energy for precharge background per rank (pJ)
system.mem_ctrls_1.actPowerDownEnergy      4896195120                       # Energy for active power-down per rank (pJ)
system.mem_ctrls_1.prePowerDownEnergy       747282720                       # Energy for precharge power-down per rank (pJ)
system.mem_ctrls_1.selfRefreshEnergy        124680480                       # Energy for self refresh per rank (pJ)
system.mem_ctrls_1.totalEnergy             8685507735                       # Total energy per rank (pJ)
system.mem_ctrls_1.averagePower            568.894476                       # Core power per rank (mW)
system.mem_ctrls_1.totalIdleTime          13001487000                       # Total Idle time Per DRAM Rank
system.mem_ctrls_1.memoryStateTime::IDLE     32910000                       # Time in different power states
system.mem_ctrls_1.memoryStateTime::REF     520818000                       # Time in different power states
system.mem_ctrls_1.memoryStateTime::SREF    318637500                       # Time in different power states
system.mem_ctrls_1.memoryStateTime::PRE_PDN   1946035375                       # Time in different power states
system.mem_ctrls_1.memoryStateTime::ACT    1711753500                       # Time in different power states
system.mem_ctrls_1.memoryStateTime::ACT_PDN  10737189750                       # Time in different power states
system.pwrStateResidencyTicks::UNDEFINED  15267344125                       # Cumulative time (in ticks) in various power states
system.cpu0.branchPred.lookups                4642506                       # Number of BP lookups
system.cpu0.branchPred.condPredicted          4642506                       # Number of conditional branches predicted
system.cpu0.branchPred.condIncorrect           191277                       # Number of conditional branches incorrect
system.cpu0.branchPred.BTBLookups             3716685                       # Number of BTB lookups
system.cpu0.branchPred.BTBHits                      0                       # Number of BTB hits
system.cpu0.branchPred.BTBCorrect                   0                       # Number of correct BTB predictions (this stat may not work properly.
system.cpu0.branchPred.BTBHitPct             0.000000                       # BTB Hit Percentage
system.cpu0.branchPred.usedRAS                 111177                       # Number of times the RAS was used to get a target.
system.cpu0.branchPred.RASInCorrect             15252                       # Number of incorrect RAS predictions.
system.cpu0.branchPred.indirectLookups        3716685                       # Number of indirect predictor lookups.
system.cpu0.branchPred.indirectHits           1992787                       # Number of indirect target hits.
system.cpu0.branchPred.indirectMisses         1723898                       # Number of indirect misses.
system.cpu0.branchPredindirectMispredicted        64760                       # Number of mispredicted indirect branches.
system.cpu_voltage_domain.voltage                   1                       # Voltage in Volts
system.cpu_clk_domain.clock                       500                       # Clock period in ticks
system.cpu0.dtb.walker.pwrStateResidencyTicks::UNDEFINED  15267344125                       # Cumulative time (in ticks) in various power states
system.cpu0.dtb.rdAccesses                    2242098                       # TLB accesses on read requests
system.cpu0.dtb.wrAccesses                     127953                       # TLB accesses on write requests
system.cpu0.dtb.rdMisses                       480476                       # TLB misses on read requests
system.cpu0.dtb.wrMisses                         2727                       # TLB misses on write requests
system.cpu0.apic_clk_domain.clock                8000                       # Clock period in ticks
system.cpu0.interrupts.pwrStateResidencyTicks::UNDEFINED  15267344125                       # Cumulative time (in ticks) in various power states
system.cpu0.itb.walker.pwrStateResidencyTicks::UNDEFINED  15267344125                       # Cumulative time (in ticks) in various power states
system.cpu0.itb.rdAccesses                          0                       # TLB accesses on read requests
system.cpu0.itb.wrAccesses                    3893218                       # TLB accesses on write requests
system.cpu0.itb.rdMisses                            0                       # TLB misses on read requests
system.cpu0.itb.wrMisses                        10299                       # TLB misses on write requests
system.cpu0.workload.numSyscalls                    0                       # Number of system calls
system.cpu0.pwrStateResidencyTicks::ON    15267344125                       # Cumulative time (in ticks) in various power states
system.cpu0.numCycles                        30534688                       # number of cpu cycles simulated
system.cpu0.numWorkItemsStarted                     0                       # number of work items this cpu started
system.cpu0.numWorkItemsCompleted                   0                       # number of work items this cpu completed
system.cpu0.fetch.icacheStallCycles           3977446                       # Number of cycles fetch is stalled on an Icache miss
system.cpu0.fetch.Insts                      13287636                       # Number of instructions fetch has processed
system.cpu0.fetch.Branches                    4642506                       # Number of branches that fetch encountered
system.cpu0.fetch.predictedBranches           2103964                       # Number of branches that fetch has predicted taken
system.cpu0.fetch.Cycles                     26262333                       # Number of cycles fetch has run and was not squashing or blocked
system.cpu0.fetch.SquashCycles                 389038                       # Number of cycles fetch has spent squashing
system.cpu0.fetch.TlbCycles                      1049                       # Number of cycles fetch has spent waiting for tlb
system.cpu0.fetch.MiscStallCycles                2359                       # Number of cycles fetch has spent waiting on interrupts, or bad addresses, or out of MSHRs
system.cpu0.fetch.PendingTrapStallCycles        79900                       # Number of stall cycles due to pending traps
system.cpu0.fetch.PendingQuiesceStallCycles            1                       # Number of stall cycles due to pending quiesce instructions
system.cpu0.fetch.CacheLines                  3882919                       # Number of cache lines fetched
system.cpu0.fetch.IcacheSquashes                31590                       # Number of outstanding Icache misses that were squashed
system.cpu0.fetch.ItlbSquashes                     19                       # Number of outstanding ITLB misses that were squashed
system.cpu0.fetch.rateDist::samples          30517607                       # Number of instructions fetched each cycle (Total)
system.cpu0.fetch.rateDist::mean             0.874874                       # Number of instructions fetched each cycle (Total)
system.cpu0.fetch.rateDist::stdev            2.249838                       # Number of instructions fetched each cycle (Total)
system.cpu0.fetch.rateDist::underflows              0      0.00%      0.00% # Number of instructions fetched each cycle (Total)
system.cpu0.fetch.rateDist::0                25326486     82.99%     82.99% # Number of instructions fetched each cycle (Total)
system.cpu0.fetch.rateDist::1                   71261      0.23%     83.22% # Number of instructions fetched each cycle (Total)
system.cpu0.fetch.rateDist::2                 1938575      6.35%     89.58% # Number of instructions fetched each cycle (Total)
system.cpu0.fetch.rateDist::3                   63231      0.21%     89.78% # Number of instructions fetched each cycle (Total)
system.cpu0.fetch.rateDist::4                  355756      1.17%     90.95% # Number of instructions fetched each cycle (Total)
system.cpu0.fetch.rateDist::5                  153309      0.50%     91.45% # Number of instructions fetched each cycle (Total)
system.cpu0.fetch.rateDist::6                  222237      0.73%     92.18% # Number of instructions fetched each cycle (Total)
system.cpu0.fetch.rateDist::7                   56049      0.18%     92.36% # Number of instructions fetched each cycle (Total)
system.cpu0.fetch.rateDist::8                 2330703      7.64%    100.00% # Number of instructions fetched each cycle (Total)
system.cpu0.fetch.rateDist::overflows               0      0.00%    100.00% # Number of instructions fetched each cycle (Total)
system.cpu0.fetch.rateDist::min_value               0                       # Number of instructions fetched each cycle (Total)
system.cpu0.fetch.rateDist::max_value               8                       # Number of instructions fetched each cycle (Total)
system.cpu0.fetch.rateDist::total            30517607                       # Number of instructions fetched each cycle (Total)
system.cpu0.fetch.branchRate                 0.152040                       # Number of branch fetches per cycle
system.cpu0.fetch.rate                       0.435165                       # Number of inst fetches per cycle
system.cpu0.decode.IdleCycles                 2062029                       # Number of cycles decode is idle
system.cpu0.decode.BlockedCycles             24736269                       # Number of cycles decode is blocked
system.cpu0.decode.RunCycles                  2671387                       # Number of cycles decode is running
system.cpu0.decode.UnblockCycles               853403                       # Number of cycles decode is unblocking
system.cpu0.decode.SquashCycles                194519                       # Number of cycles decode is squashing
system.cpu0.decode.DecodedInsts              22591118                       # Number of instructions handled by decode
system.cpu0.rename.SquashCycles                194519                       # Number of cycles rename is squashing
system.cpu0.rename.IdleCycles                 2372487                       # Number of cycles rename is idle
system.cpu0.rename.BlockCycles               21857481                       # Number of cycles rename is blocking
system.cpu0.rename.serializeStallCycles         42920                       # count of cycles rename stalled for serializing inst
system.cpu0.rename.RunCycles                  3039765                       # Number of cycles rename is running
system.cpu0.rename.UnblockCycles              3010435                       # Number of cycles rename is unblocking
system.cpu0.rename.RenamedInsts              21711675                       # Number of instructions processed by rename
system.cpu0.rename.ROBFullEvents                72307                       # Number of times rename has blocked due to ROB full
system.cpu0.rename.IQFullEvents               2686034                       # Number of times rename has blocked due to IQ full
system.cpu0.rename.LQFullEvents                170541                       # Number of times rename has blocked due to LQ full
system.cpu0.rename.SQFullEvents                 15480                       # Number of times rename has blocked due to SQ full
system.cpu0.rename.RenamedOperands           25906020                       # Number of destination operands rename has renamed
system.cpu0.rename.RenameLookups             60610934                       # Number of register rename lookups that rename has made
system.cpu0.rename.int_rename_lookups        28252308                       # Number of integer rename lookups
system.cpu0.rename.fp_rename_lookups            99340                       # Number of floating rename lookups
system.cpu0.rename.CommittedMaps              9577842                       # Number of HB maps that are committed
system.cpu0.rename.UndoneMaps                16328176                       # Number of HB maps that are undone due to squashing
system.cpu0.rename.serializingInsts              1119                       # count of serializing insts renamed
system.cpu0.rename.tempSerializingInsts          1328                       # count of temporary serializing insts renamed
system.cpu0.rename.skidInsts                  5296671                       # count of insts added to the skid buffer
system.cpu0.memDep0.insertedLoads             3928396                       # Number of loads inserted to the mem dependence unit.
system.cpu0.memDep0.insertedStores             191567                       # Number of stores inserted to the mem dependence unit.
system.cpu0.memDep0.conflictingLoads            12918                       # Number of conflicting loads.
system.cpu0.memDep0.conflictingStores           12304                       # Number of conflicting stores.
system.cpu0.iq.iqInstsAdded                  20590223                       # Number of instructions added to the IQ (excludes non-spec)
system.cpu0.iq.iqNonSpecInstsAdded              11886                       # Number of non-speculative instructions added to the IQ
system.cpu0.iq.iqInstsIssued                 14817675                       # Number of instructions issued
system.cpu0.iq.iqSquashedInstsIssued            21233                       # Number of squashed instructions issued
system.cpu0.iq.iqSquashedInstsExamined       12617282                       # Number of squashed instructions iterated over during squash; mainly for profiling
system.cpu0.iq.iqSquashedOperandsExamined     26825701                       # Number of squashed operands that are examined and possibly removed from graph
system.cpu0.iq.iqSquashedNonSpecRemoved         11886                       # Number of squashed non-spec instructions that were removed
system.cpu0.iq.issued_per_cycle::samples     30517607                       # Number of insts issued each cycle
system.cpu0.iq.issued_per_cycle::mean        0.485545                       # Number of insts issued each cycle
system.cpu0.iq.issued_per_cycle::stdev       1.226913                       # Number of insts issued each cycle
system.cpu0.iq.issued_per_cycle::underflows            0      0.00%      0.00% # Number of insts issued each cycle
system.cpu0.iq.issued_per_cycle::0           24656726     80.80%     80.80% # Number of insts issued each cycle
system.cpu0.iq.issued_per_cycle::1            2181970      7.15%     87.94% # Number of insts issued each cycle
system.cpu0.iq.issued_per_cycle::2            1233523      4.04%     91.99% # Number of insts issued each cycle
system.cpu0.iq.issued_per_cycle::3             861553      2.82%     94.81% # Number of insts issued each cycle
system.cpu0.iq.issued_per_cycle::4             908721      2.98%     97.79% # Number of insts issued each cycle
system.cpu0.iq.issued_per_cycle::5             308622      1.01%     98.80% # Number of insts issued each cycle
system.cpu0.iq.issued_per_cycle::6             220788      0.72%     99.52% # Number of insts issued each cycle
system.cpu0.iq.issued_per_cycle::7              84354      0.28%     99.80% # Number of insts issued each cycle
system.cpu0.iq.issued_per_cycle::8              61350      0.20%    100.00% # Number of insts issued each cycle
system.cpu0.iq.issued_per_cycle::overflows            0      0.00%    100.00% # Number of insts issued each cycle
system.cpu0.iq.issued_per_cycle::min_value            0                       # Number of insts issued each cycle
system.cpu0.iq.issued_per_cycle::max_value            8                       # Number of insts issued each cycle
system.cpu0.iq.issued_per_cycle::total       30517607                       # Number of insts issued each cycle
system.cpu0.iq.fu_full::No_OpClass                  0      0.00%      0.00% # attempts to use FU when none available
system.cpu0.iq.fu_full::IntAlu                  33075     70.59%     70.59% # attempts to use FU when none available
system.cpu0.iq.fu_full::IntMult                     0      0.00%     70.59% # attempts to use FU when none available
system.cpu0.iq.fu_full::IntDiv                      0      0.00%     70.59% # attempts to use FU when none available
system.cpu0.iq.fu_full::FloatAdd                 2926      6.24%     76.83% # attempts to use FU when none available
system.cpu0.iq.fu_full::FloatCmp                    0      0.00%     76.83% # attempts to use FU when none available
system.cpu0.iq.fu_full::FloatCvt                    0      0.00%     76.83% # attempts to use FU when none available
system.cpu0.iq.fu_full::FloatMult                   0      0.00%     76.83% # attempts to use FU when none available
system.cpu0.iq.fu_full::FloatMultAcc                0      0.00%     76.83% # attempts to use FU when none available
system.cpu0.iq.fu_full::FloatDiv                    0      0.00%     76.83% # attempts to use FU when none available
system.cpu0.iq.fu_full::FloatMisc                   0      0.00%     76.83% # attempts to use FU when none available
system.cpu0.iq.fu_full::FloatSqrt                   0      0.00%     76.83% # attempts to use FU when none available
system.cpu0.iq.fu_full::SimdAdd                     0      0.00%     76.83% # attempts to use FU when none available
system.cpu0.iq.fu_full::SimdAddAcc                  0      0.00%     76.83% # attempts to use FU when none available
system.cpu0.iq.fu_full::SimdAlu                     0      0.00%     76.83% # attempts to use FU when none available
system.cpu0.iq.fu_full::SimdCmp                     0      0.00%     76.83% # attempts to use FU when none available
system.cpu0.iq.fu_full::SimdCvt                     0      0.00%     76.83% # attempts to use FU when none available
system.cpu0.iq.fu_full::SimdMisc                    0      0.00%     76.83% # attempts to use FU when none available
system.cpu0.iq.fu_full::SimdMult                    0      0.00%     76.83% # attempts to use FU when none available
system.cpu0.iq.fu_full::SimdMultAcc                 0      0.00%     76.83% # attempts to use FU when none available
system.cpu0.iq.fu_full::SimdShift                   0      0.00%     76.83% # attempts to use FU when none available
system.cpu0.iq.fu_full::SimdShiftAcc                0      0.00%     76.83% # attempts to use FU when none available
system.cpu0.iq.fu_full::SimdSqrt                    0      0.00%     76.83% # attempts to use FU when none available
system.cpu0.iq.fu_full::SimdFloatAdd                0      0.00%     76.83% # attempts to use FU when none available
system.cpu0.iq.fu_full::SimdFloatAlu                0      0.00%     76.83% # attempts to use FU when none available
system.cpu0.iq.fu_full::SimdFloatCmp                0      0.00%     76.83% # attempts to use FU when none available
system.cpu0.iq.fu_full::SimdFloatCvt                0      0.00%     76.83% # attempts to use FU when none available
system.cpu0.iq.fu_full::SimdFloatDiv                0      0.00%     76.83% # attempts to use FU when none available
system.cpu0.iq.fu_full::SimdFloatMisc               0      0.00%     76.83% # attempts to use FU when none available
system.cpu0.iq.fu_full::SimdFloatMult               0      0.00%     76.83% # attempts to use FU when none available
system.cpu0.iq.fu_full::SimdFloatMultAcc            0      0.00%     76.83% # attempts to use FU when none available
system.cpu0.iq.fu_full::SimdFloatSqrt               0      0.00%     76.83% # attempts to use FU when none available
system.cpu0.iq.fu_full::MemRead                  9546     20.37%     97.21% # attempts to use FU when none available
system.cpu0.iq.fu_full::MemWrite                  770      1.64%     98.85% # attempts to use FU when none available
system.cpu0.iq.fu_full::FloatMemRead              263      0.56%     99.41% # attempts to use FU when none available
system.cpu0.iq.fu_full::FloatMemWrite             275      0.59%    100.00% # attempts to use FU when none available
system.cpu0.iq.fu_full::IprAccess                   0      0.00%    100.00% # attempts to use FU when none available
system.cpu0.iq.fu_full::InstPrefetch                0      0.00%    100.00% # attempts to use FU when none available
system.cpu0.iq.FU_type_0::No_OpClass            44721      0.30%      0.30% # Type of FU issued
system.cpu0.iq.FU_type_0::IntAlu             12197760     82.32%     82.62% # Type of FU issued
system.cpu0.iq.FU_type_0::IntMult                2545      0.02%     82.64% # Type of FU issued
system.cpu0.iq.FU_type_0::IntDiv                25444      0.17%     82.81% # Type of FU issued
system.cpu0.iq.FU_type_0::FloatAdd              36969      0.25%     83.06% # Type of FU issued
system.cpu0.iq.FU_type_0::FloatCmp                  0      0.00%     83.06% # Type of FU issued
system.cpu0.iq.FU_type_0::FloatCvt                  0      0.00%     83.06% # Type of FU issued
system.cpu0.iq.FU_type_0::FloatMult                 0      0.00%     83.06% # Type of FU issued
system.cpu0.iq.FU_type_0::FloatMultAcc              0      0.00%     83.06% # Type of FU issued
system.cpu0.iq.FU_type_0::FloatDiv                  0      0.00%     83.06% # Type of FU issued
system.cpu0.iq.FU_type_0::FloatMisc                 0      0.00%     83.06% # Type of FU issued
system.cpu0.iq.FU_type_0::FloatSqrt                 0      0.00%     83.06% # Type of FU issued
system.cpu0.iq.FU_type_0::SimdAdd                   0      0.00%     83.06% # Type of FU issued
system.cpu0.iq.FU_type_0::SimdAddAcc                0      0.00%     83.06% # Type of FU issued
system.cpu0.iq.FU_type_0::SimdAlu                   0      0.00%     83.06% # Type of FU issued
system.cpu0.iq.FU_type_0::SimdCmp                   0      0.00%     83.06% # Type of FU issued
system.cpu0.iq.FU_type_0::SimdCvt                   0      0.00%     83.06% # Type of FU issued
system.cpu0.iq.FU_type_0::SimdMisc                  0      0.00%     83.06% # Type of FU issued
system.cpu0.iq.FU_type_0::SimdMult                  0      0.00%     83.06% # Type of FU issued
system.cpu0.iq.FU_type_0::SimdMultAcc               0      0.00%     83.06% # Type of FU issued
system.cpu0.iq.FU_type_0::SimdShift                 0      0.00%     83.06% # Type of FU issued
system.cpu0.iq.FU_type_0::SimdShiftAcc              0      0.00%     83.06% # Type of FU issued
system.cpu0.iq.FU_type_0::SimdSqrt                  0      0.00%     83.06% # Type of FU issued
system.cpu0.iq.FU_type_0::SimdFloatAdd              0      0.00%     83.06% # Type of FU issued
system.cpu0.iq.FU_type_0::SimdFloatAlu              0      0.00%     83.06% # Type of FU issued
system.cpu0.iq.FU_type_0::SimdFloatCmp              0      0.00%     83.06% # Type of FU issued
system.cpu0.iq.FU_type_0::SimdFloatCvt              0      0.00%     83.06% # Type of FU issued
system.cpu0.iq.FU_type_0::SimdFloatDiv              0      0.00%     83.06% # Type of FU issued
system.cpu0.iq.FU_type_0::SimdFloatMisc             0      0.00%     83.06% # Type of FU issued
system.cpu0.iq.FU_type_0::SimdFloatMult             0      0.00%     83.06% # Type of FU issued
system.cpu0.iq.FU_type_0::SimdFloatMultAcc            0      0.00%     83.06% # Type of FU issued
system.cpu0.iq.FU_type_0::SimdFloatSqrt             0      0.00%     83.06% # Type of FU issued
system.cpu0.iq.FU_type_0::MemRead             2365391     15.96%     99.02% # Type of FU issued
system.cpu0.iq.FU_type_0::MemWrite             137633      0.93%     99.95% # Type of FU issued
system.cpu0.iq.FU_type_0::FloatMemRead           6141      0.04%     99.99% # Type of FU issued
system.cpu0.iq.FU_type_0::FloatMemWrite          1071      0.01%    100.00% # Type of FU issued
system.cpu0.iq.FU_type_0::IprAccess                 0      0.00%    100.00% # Type of FU issued
system.cpu0.iq.FU_type_0::InstPrefetch              0      0.00%    100.00% # Type of FU issued
system.cpu0.iq.FU_type_0::total              14817675                       # Type of FU issued
system.cpu0.iq.rate                          0.485274                       # Inst issue rate
system.cpu0.iq.fu_busy_cnt                      46855                       # FU busy when requested
system.cpu0.iq.fu_busy_rate                  0.003162                       # FU busy rate (busy events/executed inst)
system.cpu0.iq.int_inst_queue_reads          60128438                       # Number of integer instruction queue reads
system.cpu0.iq.int_inst_queue_writes         33133647                       # Number of integer instruction queue writes
system.cpu0.iq.int_inst_queue_wakeup_accesses     14178232                       # Number of integer instruction queue wakeup accesses
system.cpu0.iq.fp_inst_queue_reads              92607                       # Number of floating instruction queue reads
system.cpu0.iq.fp_inst_queue_writes             85754                       # Number of floating instruction queue writes
system.cpu0.iq.fp_inst_queue_wakeup_accesses        40752                       # Number of floating instruction queue wakeup accesses
system.cpu0.iq.vec_inst_queue_reads                 0                       # Number of vector instruction queue reads
system.cpu0.iq.vec_inst_queue_writes                0                       # Number of vector instruction queue writes
system.cpu0.iq.vec_inst_queue_wakeup_accesses            0                       # Number of vector instruction queue wakeup accesses
system.cpu0.iq.int_alu_accesses              14772095                       # Number of integer alu accesses
system.cpu0.iq.fp_alu_accesses                  47714                       # Number of floating point alu accesses
system.cpu0.iq.vec_alu_accesses                     0                       # Number of vector alu accesses
system.cpu0.iew.lsq.thread0.forwLoads           11243                       # Number of loads that had data forwarded from stores
system.cpu0.iew.lsq.thread0.invAddrLoads            0                       # Number of loads ignored due to an invalid address
system.cpu0.iew.lsq.thread0.squashedLoads      2413812                       # Number of loads squashed
system.cpu0.iew.lsq.thread0.ignoredResponses          387                       # Number of memory responses ignored because the instruction is squashed
system.cpu0.iew.lsq.thread0.memOrderViolation           10                       # Number of memory ordering violations
system.cpu0.iew.lsq.thread0.squashedStores       119775                       # Number of stores squashed
system.cpu0.iew.lsq.thread0.invAddrSwpfs            0                       # Number of software prefetches ignored due to an invalid address
system.cpu0.iew.lsq.thread0.blockedLoads            0                       # Number of blocked loads due to partial load-store forwarding
system.cpu0.iew.lsq.thread0.rescheduledLoads           85                       # Number of loads that were rescheduled
system.cpu0.iew.lsq.thread0.cacheBlocked         6551                       # Number of times an access to memory failed due to the cache being blocked
system.cpu0.iew.iewIdleCycles                       0                       # Number of cycles IEW is idle
system.cpu0.iew.iewSquashCycles                194519                       # Number of cycles IEW is squashing
system.cpu0.iew.iewBlockCycles               18931881                       # Number of cycles IEW is blocking
system.cpu0.iew.iewUnblockCycles               516013                       # Number of cycles IEW is unblocking
system.cpu0.iew.iewDispatchedInsts           20602109                       # Number of instructions dispatched to IQ
system.cpu0.iew.iewDispSquashedInsts            11571                       # Number of squashed instructions skipped by dispatch
system.cpu0.iew.iewDispLoadInsts              3928396                       # Number of dispatched load instructions
system.cpu0.iew.iewDispStoreInsts              191567                       # Number of dispatched store instructions
system.cpu0.iew.iewDispNonSpecInsts              4580                       # Number of dispatched non-speculative instructions
system.cpu0.iew.iewIQFullEvents                 38960                       # Number of times the IQ has become full, causing a stall
system.cpu0.iew.iewLSQFullEvents                44958                       # Number of times the LSQ has become full, causing a stall
system.cpu0.iew.memOrderViolationEvents            10                       # Number of memory order violations
system.cpu0.iew.predictedTakenIncorrect        101694                       # Number of branches that were predicted taken incorrectly
system.cpu0.iew.predictedNotTakenIncorrect       112466                       # Number of branches that were predicted not taken incorrectly
system.cpu0.iew.branchMispredicts              214160                       # Number of branch mispredicts detected at execute
system.cpu0.iew.iewExecutedInsts             14514066                       # Number of executed instructions
system.cpu0.iew.iewExecLoadInsts              2241367                       # Number of load instructions executed
system.cpu0.iew.iewExecSquashedInsts           303609                       # Number of squashed instructions skipped in execute
system.cpu0.iew.exec_swp                            0                       # number of swp insts executed
system.cpu0.iew.exec_nop                            0                       # number of nop insts executed
system.cpu0.iew.exec_refs                     2369275                       # number of memory reference insts executed
system.cpu0.iew.exec_branches                 1785863                       # Number of branches executed
system.cpu0.iew.exec_stores                    127908                       # Number of stores executed
system.cpu0.iew.exec_rate                    0.475330                       # Inst execution rate
system.cpu0.iew.wb_sent                      14265995                       # cumulative count of insts sent to commit
system.cpu0.iew.wb_count                     14218984                       # cumulative count of insts written-back
system.cpu0.iew.wb_producers                 10632021                       # num instructions producing a value
system.cpu0.iew.wb_consumers                 16817701                       # num instructions consuming a value
system.cpu0.iew.wb_rate                      0.465667                       # insts written-back per cycle
system.cpu0.iew.wb_fanout                    0.632192                       # average fanout of values written-back
system.cpu0.commit.commitSquashedInsts       12618356                       # The number of squashed insts skipped by commit
system.cpu0.commit.branchMispredicts           194512                       # The number of times a branch was mispredicted
system.cpu0.commit.committed_per_cycle::samples     28749697                       # Number of insts commited each cycle
system.cpu0.commit.committed_per_cycle::mean     0.277736                       # Number of insts commited each cycle
system.cpu0.commit.committed_per_cycle::stdev     0.946920                       # Number of insts commited each cycle
system.cpu0.commit.committed_per_cycle::underflows            0      0.00%      0.00% # Number of insts commited each cycle
system.cpu0.commit.committed_per_cycle::0     25305771     88.02%     88.02% # Number of insts commited each cycle
system.cpu0.commit.committed_per_cycle::1      1577518      5.49%     93.51% # Number of insts commited each cycle
system.cpu0.commit.committed_per_cycle::2       374983      1.30%     94.81% # Number of insts commited each cycle
system.cpu0.commit.committed_per_cycle::3      1036953      3.61%     98.42% # Number of insts commited each cycle
system.cpu0.commit.committed_per_cycle::4       179901      0.63%     99.04% # Number of insts commited each cycle
system.cpu0.commit.committed_per_cycle::5       106766      0.37%     99.42% # Number of insts commited each cycle
system.cpu0.commit.committed_per_cycle::6        20032      0.07%     99.49% # Number of insts commited each cycle
system.cpu0.commit.committed_per_cycle::7         9328      0.03%     99.52% # Number of insts commited each cycle
system.cpu0.commit.committed_per_cycle::8       138445      0.48%    100.00% # Number of insts commited each cycle
system.cpu0.commit.committed_per_cycle::overflows            0      0.00%    100.00% # Number of insts commited each cycle
system.cpu0.commit.committed_per_cycle::min_value            0                       # Number of insts commited each cycle
system.cpu0.commit.committed_per_cycle::max_value            8                       # Number of insts commited each cycle
system.cpu0.commit.committed_per_cycle::total     28749697                       # Number of insts commited each cycle
system.cpu0.commit.committedInsts             3993864                       # Number of instructions committed
system.cpu0.commit.committedOps               7984825                       # Number of ops (including micro ops) committed
system.cpu0.commit.swp_count                        0                       # Number of s/w prefetches committed
system.cpu0.commit.refs                       1586376                       # Number of memory references committed
system.cpu0.commit.loads                      1514584                       # Number of loads committed
system.cpu0.commit.membars                          0                       # Number of memory barriers committed
system.cpu0.commit.branches                   1449202                       # Number of branches committed
system.cpu0.commit.vec_insts                        0                       # Number of committed Vector instructions.
system.cpu0.commit.fp_insts                     28788                       # Number of committed floating point instructions.
system.cpu0.commit.int_insts                  7955638                       # Number of committed integer instructions.
system.cpu0.commit.function_calls               12675                       # Number of function calls committed.
system.cpu0.commit.op_class_0::No_OpClass         8775      0.11%      0.11% # Class of committed instruction
system.cpu0.commit.op_class_0::IntAlu         6343156     79.44%     79.55% # Class of committed instruction
system.cpu0.commit.op_class_0::IntMult            507      0.01%     79.56% # Class of committed instruction
system.cpu0.commit.op_class_0::IntDiv           21411      0.27%     79.82% # Class of committed instruction
system.cpu0.commit.op_class_0::FloatAdd         24600      0.31%     80.13% # Class of committed instruction
system.cpu0.commit.op_class_0::FloatCmp             0      0.00%     80.13% # Class of committed instruction
system.cpu0.commit.op_class_0::FloatCvt             0      0.00%     80.13% # Class of committed instruction
system.cpu0.commit.op_class_0::FloatMult            0      0.00%     80.13% # Class of committed instruction
system.cpu0.commit.op_class_0::FloatMultAcc            0      0.00%     80.13% # Class of committed instruction
system.cpu0.commit.op_class_0::FloatDiv             0      0.00%     80.13% # Class of committed instruction
system.cpu0.commit.op_class_0::FloatMisc            0      0.00%     80.13% # Class of committed instruction
system.cpu0.commit.op_class_0::FloatSqrt            0      0.00%     80.13% # Class of committed instruction
system.cpu0.commit.op_class_0::SimdAdd              0      0.00%     80.13% # Class of committed instruction
system.cpu0.commit.op_class_0::SimdAddAcc            0      0.00%     80.13% # Class of committed instruction
system.cpu0.commit.op_class_0::SimdAlu              0      0.00%     80.13% # Class of committed instruction
system.cpu0.commit.op_class_0::SimdCmp              0      0.00%     80.13% # Class of committed instruction
system.cpu0.commit.op_class_0::SimdCvt              0      0.00%     80.13% # Class of committed instruction
system.cpu0.commit.op_class_0::SimdMisc             0      0.00%     80.13% # Class of committed instruction
system.cpu0.commit.op_class_0::SimdMult             0      0.00%     80.13% # Class of committed instruction
system.cpu0.commit.op_class_0::SimdMultAcc            0      0.00%     80.13% # Class of committed instruction
system.cpu0.commit.op_class_0::SimdShift            0      0.00%     80.13% # Class of committed instruction
system.cpu0.commit.op_class_0::SimdShiftAcc            0      0.00%     80.13% # Class of committed instruction
system.cpu0.commit.op_class_0::SimdSqrt             0      0.00%     80.13% # Class of committed instruction
system.cpu0.commit.op_class_0::SimdFloatAdd            0      0.00%     80.13% # Class of committed instruction
system.cpu0.commit.op_class_0::SimdFloatAlu            0      0.00%     80.13% # Class of committed instruction
system.cpu0.commit.op_class_0::SimdFloatCmp            0      0.00%     80.13% # Class of committed instruction
system.cpu0.commit.op_class_0::SimdFloatCvt            0      0.00%     80.13% # Class of committed instruction
system.cpu0.commit.op_class_0::SimdFloatDiv            0      0.00%     80.13% # Class of committed instruction
system.cpu0.commit.op_class_0::SimdFloatMisc            0      0.00%     80.13% # Class of committed instruction
system.cpu0.commit.op_class_0::SimdFloatMult            0      0.00%     80.13% # Class of committed instruction
system.cpu0.commit.op_class_0::SimdFloatMultAcc            0      0.00%     80.13% # Class of committed instruction
system.cpu0.commit.op_class_0::SimdFloatSqrt            0      0.00%     80.13% # Class of committed instruction
system.cpu0.commit.op_class_0::MemRead        1510396     18.92%     99.05% # Class of committed instruction
system.cpu0.commit.op_class_0::MemWrite         71792      0.90%     99.95% # Class of committed instruction
system.cpu0.commit.op_class_0::FloatMemRead         4188      0.05%    100.00% # Class of committed instruction
system.cpu0.commit.op_class_0::FloatMemWrite            0      0.00%    100.00% # Class of committed instruction
system.cpu0.commit.op_class_0::IprAccess            0      0.00%    100.00% # Class of committed instruction
system.cpu0.commit.op_class_0::InstPrefetch            0      0.00%    100.00% # Class of committed instruction
system.cpu0.commit.op_class_0::total          7984825                       # Class of committed instruction
system.cpu0.commit.bw_lim_events               138445                       # number cycles where commit BW limit reached
system.cpu0.rob.rob_reads                    49214433                       # The number of ROB reads
system.cpu0.rob.rob_writes                   42979596                       # The number of ROB writes
system.cpu0.timesIdled                            423                       # Number of times that the entire CPU went into an idle state and unscheduled itself
system.cpu0.idleCycles                          17081                       # Total number of cycles that the CPU has spent unscheduled due to idling
system.cpu0.committedInsts                    3993864                       # Number of Instructions Simulated
system.cpu0.committedOps                      7984825                       # Number of Ops (including micro ops) Simulated
system.cpu0.cpi                              7.645400                       # CPI: Cycles Per Instruction
system.cpu0.cpi_total                        7.645400                       # CPI: Total CPI of All Threads
system.cpu0.ipc                              0.130798                       # IPC: Instructions Per Cycle
system.cpu0.ipc_total                        0.130798                       # IPC: Total IPC of All Threads
system.cpu0.int_regfile_reads                14371961                       # number of integer regfile reads
system.cpu0.int_regfile_writes               12323906                       # number of integer regfile writes
system.cpu0.fp_regfile_reads                    72795                       # number of floating regfile reads
system.cpu0.fp_regfile_writes                   36083                       # number of floating regfile writes
system.cpu0.cc_regfile_reads                  9427485                       # number of cc regfile reads
system.cpu0.cc_regfile_writes                 3976883                       # number of cc regfile writes
system.cpu0.misc_regfile_reads                7734144                       # number of misc regfile reads
system.cpu0.dcache.tags.pwrStateResidencyTicks::UNDEFINED  15267344125                       # Cumulative time (in ticks) in various power states
system.cpu0.dcache.tags.replacements           801206                       # number of replacements
system.cpu0.dcache.tags.tagsinuse                 512                       # Cycle average of tags in use
system.cpu0.dcache.tags.total_refs             928033                       # Total number of references to valid blocks.
system.cpu0.dcache.tags.sampled_refs           801206                       # Sample count of references to valid blocks.
system.cpu0.dcache.tags.avg_refs             1.158295                       # Average number of references to valid blocks.
system.cpu0.dcache.tags.warmup_cycle                0                       # Cycle when the warmup percentage was hit.
system.cpu0.dcache.tags.occ_blocks::cpu0.data          512                       # Average occupied blocks per requestor
system.cpu0.dcache.tags.occ_percent::cpu0.data            1                       # Average percentage of cache occupancy
system.cpu0.dcache.tags.occ_percent::total            1                       # Average percentage of cache occupancy
system.cpu0.dcache.tags.occ_task_id_blocks::1024          512                       # Occupied blocks per task id
system.cpu0.dcache.tags.age_task_id_blocks_1024::0          478                       # Occupied blocks per task id
system.cpu0.dcache.tags.age_task_id_blocks_1024::1           34                       # Occupied blocks per task id
system.cpu0.dcache.tags.occ_task_id_percent::1024            1                       # Percentage of cache occupancy per task id
system.cpu0.dcache.tags.tag_accesses          9951122                       # Number of tag accesses
system.cpu0.dcache.tags.data_accesses         9951122                       # Number of data accesses
system.cpu0.dcache.pwrStateResidencyTicks::UNDEFINED  15267344125                       # Cumulative time (in ticks) in various power states
system.cpu0.dcache.ReadReq_hits::cpu0.data       859909                       # number of ReadReq hits
system.cpu0.dcache.ReadReq_hits::total         859909                       # number of ReadReq hits
system.cpu0.dcache.WriteReq_hits::cpu0.data        68578                       # number of WriteReq hits
system.cpu0.dcache.WriteReq_hits::total         68578                       # number of WriteReq hits
system.cpu0.dcache.demand_hits::cpu0.data       928487                       # number of demand (read+write) hits
system.cpu0.dcache.demand_hits::total          928487                       # number of demand (read+write) hits
system.cpu0.dcache.overall_hits::cpu0.data       928487                       # number of overall hits
system.cpu0.dcache.overall_hits::total         928487                       # number of overall hits
system.cpu0.dcache.ReadReq_misses::cpu0.data      1355778                       # number of ReadReq misses
system.cpu0.dcache.ReadReq_misses::total      1355778                       # number of ReadReq misses
system.cpu0.dcache.WriteReq_misses::cpu0.data         3214                       # number of WriteReq misses
system.cpu0.dcache.WriteReq_misses::total         3214                       # number of WriteReq misses
system.cpu0.dcache.demand_misses::cpu0.data      1358992                       # number of demand (read+write) misses
system.cpu0.dcache.demand_misses::total       1358992                       # number of demand (read+write) misses
system.cpu0.dcache.overall_misses::cpu0.data      1358992                       # number of overall misses
system.cpu0.dcache.overall_misses::total      1358992                       # number of overall misses
system.cpu0.dcache.ReadReq_miss_latency::cpu0.data  31509617500                       # number of ReadReq miss cycles
system.cpu0.dcache.ReadReq_miss_latency::total  31509617500                       # number of ReadReq miss cycles
system.cpu0.dcache.WriteReq_miss_latency::cpu0.data    126047995                       # number of WriteReq miss cycles
system.cpu0.dcache.WriteReq_miss_latency::total    126047995                       # number of WriteReq miss cycles
system.cpu0.dcache.demand_miss_latency::cpu0.data  31635665495                       # number of demand (read+write) miss cycles
system.cpu0.dcache.demand_miss_latency::total  31635665495                       # number of demand (read+write) miss cycles
system.cpu0.dcache.overall_miss_latency::cpu0.data  31635665495                       # number of overall miss cycles
system.cpu0.dcache.overall_miss_latency::total  31635665495                       # number of overall miss cycles
system.cpu0.dcache.ReadReq_accesses::cpu0.data      2215687                       # number of ReadReq accesses(hits+misses)
system.cpu0.dcache.ReadReq_accesses::total      2215687                       # number of ReadReq accesses(hits+misses)
system.cpu0.dcache.WriteReq_accesses::cpu0.data        71792                       # number of WriteReq accesses(hits+misses)
system.cpu0.dcache.WriteReq_accesses::total        71792                       # number of WriteReq accesses(hits+misses)
[...]
system.l2.demand_miss_rate::cpu0.data        0.106108                       # miss rate for demand accesses
system.l2.demand_miss_rate::total            0.106106                       # miss rate for demand accesses
system.l2.overall_miss_rate::cpu0.inst       0.045455                       # miss rate for overall accesses
system.l2.overall_miss_rate::cpu0.data       0.106108                       # miss rate for overall accesses
system.l2.overall_miss_rate::total           0.106106                       # miss rate for overall accesses
system.l2.ReadExReq_avg_miss_latency::cpu0.data 129870.289855                       # average ReadExReq miss latency
system.l2.ReadExReq_avg_miss_latency::total 129870.289855                       # average ReadExReq miss latency
system.l2.ReadCleanReq_avg_miss_latency::cpu0.inst        90000                       # average ReadCleanReq miss latency
system.l2.ReadCleanReq_avg_miss_latency::total        90000                       # average ReadCleanReq miss latency
system.l2.ReadSharedReq_avg_miss_latency::cpu0.data 98671.457711                       # average ReadSharedReq miss latency
system.l2.ReadSharedReq_avg_miss_latency::total 98671.457711                       # average ReadSharedReq miss latency
system.l2.demand_avg_miss_latency::cpu0.inst        90000                       # average overall miss latency
system.l2.demand_avg_miss_latency::cpu0.data 98924.677112                       # average overall miss latency
system.l2.demand_avg_miss_latency::total 98924.572134                       # average overall miss latency
system.l2.overall_avg_miss_latency::cpu0.inst        90000                       # average overall miss latency
system.l2.overall_avg_miss_latency::cpu0.data 98924.677112                       # average overall miss latency
system.l2.overall_avg_miss_latency::total 98924.572134                       # average overall miss latency
system.l2.blocked_cycles::no_mshrs                  0                       # number of cycles access was blocked
system.l2.blocked_cycles::no_targets                0                       # number of cycles access was blocked
system.l2.blocked::no_mshrs                         0                       # number of cycles access was blocked
system.l2.blocked::no_targets                       0                       # number of cycles access was blocked
system.l2.avg_blocked_cycles::no_mshrs            nan                       # average number of cycles each access was blocked
system.l2.avg_blocked_cycles::no_targets          nan                       # average number of cycles each access was blocked
system.l2.writebacks::writebacks                 3237                       # number of writebacks
system.l2.writebacks::total                      3237                       # number of writebacks
system.l2.ReadExReq_mshr_misses::cpu0.data          690                       # number of ReadExReq MSHR misses
system.l2.ReadExReq_mshr_misses::total            690                       # number of ReadExReq MSHR misses
system.l2.ReadCleanReq_mshr_misses::cpu0.inst            1                       # number of ReadCleanReq MSHR misses
system.l2.ReadCleanReq_mshr_misses::total            1                       # number of ReadCleanReq MSHR misses
system.l2.ReadSharedReq_mshr_misses::cpu0.data        84324                       # number of ReadSharedReq MSHR misses
system.l2.ReadSharedReq_mshr_misses::total        84324                       # number of ReadSharedReq MSHR misses
system.l2.demand_mshr_misses::cpu0.inst             1                       # number of demand (read+write) MSHR misses
system.l2.demand_mshr_misses::cpu0.data         85014                       # number of demand (read+write) MSHR misses
system.l2.demand_mshr_misses::total             85015                       # number of demand (read+write) MSHR misses
system.l2.overall_mshr_misses::cpu0.inst            1                       # number of overall MSHR misses
system.l2.overall_mshr_misses::cpu0.data        85014                       # number of overall MSHR misses
system.l2.overall_mshr_misses::total            85015                       # number of overall MSHR misses
system.l2.ReadExReq_mshr_miss_latency::cpu0.data     82710500                       # number of ReadExReq MSHR miss cycles
system.l2.ReadExReq_mshr_miss_latency::total     82710500                       # number of ReadExReq MSHR miss cycles
system.l2.ReadCleanReq_mshr_miss_latency::cpu0.inst        80000                       # number of ReadCleanReq MSHR miss cycles
system.l2.ReadCleanReq_mshr_miss_latency::total        80000                       # number of ReadCleanReq MSHR miss cycles
system.l2.ReadSharedReq_mshr_miss_latency::cpu0.data   7477122000                       # number of ReadSharedReq MSHR miss cycles
system.l2.ReadSharedReq_mshr_miss_latency::total   7477122000                       # number of ReadSharedReq MSHR miss cycles
system.l2.demand_mshr_miss_latency::cpu0.inst        80000                       # number of demand (read+write) MSHR miss cycles
system.l2.demand_mshr_miss_latency::cpu0.data   7559832500                       # number of demand (read+write) MSHR miss cycles
system.l2.demand_mshr_miss_latency::total   7559912500                       # number of demand (read+write) MSHR miss cycles
system.l2.overall_mshr_miss_latency::cpu0.inst        80000                       # number of overall MSHR miss cycles
system.l2.overall_mshr_miss_latency::cpu0.data   7559832500                       # number of overall MSHR miss cycles
system.l2.overall_mshr_miss_latency::total   7559912500                       # number of overall MSHR miss cycles
system.l2.ReadExReq_mshr_miss_rate::cpu0.data     0.215962                       # mshr miss rate for ReadExReq accesses
system.l2.ReadExReq_mshr_miss_rate::total     0.215962                       # mshr miss rate for ReadExReq accesses
system.l2.ReadCleanReq_mshr_miss_rate::cpu0.inst     0.045455                       # mshr miss rate for ReadCleanReq accesses
system.l2.ReadCleanReq_mshr_miss_rate::total     0.045455                       # mshr miss rate for ReadCleanReq accesses
system.l2.ReadSharedReq_mshr_miss_rate::cpu0.data     0.105668                       # mshr miss rate for ReadSharedReq accesses
system.l2.ReadSharedReq_mshr_miss_rate::total     0.105668                       # mshr miss rate for ReadSharedReq accesses
system.l2.demand_mshr_miss_rate::cpu0.inst     0.045455                       # mshr miss rate for demand accesses
system.l2.demand_mshr_miss_rate::cpu0.data     0.106108                       # mshr miss rate for demand accesses
system.l2.demand_mshr_miss_rate::total       0.106106                       # mshr miss rate for demand accesses
system.l2.overall_mshr_miss_rate::cpu0.inst     0.045455                       # mshr miss rate for overall accesses
system.l2.overall_mshr_miss_rate::cpu0.data     0.106108                       # mshr miss rate for overall accesses
system.l2.overall_mshr_miss_rate::total      0.106106                       # mshr miss rate for overall accesses
system.l2.ReadExReq_avg_mshr_miss_latency::cpu0.data 119870.289855                       # average ReadExReq mshr miss latency
system.l2.ReadExReq_avg_mshr_miss_latency::total 119870.289855                       # average ReadExReq mshr miss latency
system.l2.ReadCleanReq_avg_mshr_miss_latency::cpu0.inst        80000                       # average ReadCleanReq mshr miss latency
system.l2.ReadCleanReq_avg_mshr_miss_latency::total        80000                       # average ReadCleanReq mshr miss latency
system.l2.ReadSharedReq_avg_mshr_miss_latency::cpu0.data 88671.339121                       # average ReadSharedReq mshr miss latency
system.l2.ReadSharedReq_avg_mshr_miss_latency::total 88671.339121                       # average ReadSharedReq mshr miss latency
system.l2.demand_avg_mshr_miss_latency::cpu0.inst        80000                       # average overall mshr miss latency
system.l2.demand_avg_mshr_miss_latency::cpu0.data 88924.559484                       # average overall mshr miss latency
system.l2.demand_avg_mshr_miss_latency::total 88924.454508                       # average overall mshr miss latency
system.l2.overall_avg_mshr_miss_latency::cpu0.inst        80000                       # average overall mshr miss latency
system.l2.overall_avg_mshr_miss_latency::cpu0.data 88924.559484                       # average overall mshr miss latency
system.l2.overall_avg_mshr_miss_latency::total 88924.454508                       # average overall mshr miss latency
system.membus.snoop_filter.tot_requests        170030                       # Total number of requests made to the snoop filter.
system.membus.snoop_filter.hit_single_requests        85017                       # Number of requests hitting in the snoop filter with a single holder of the requested data.
system.membus.snoop_filter.hit_multi_requests            0                       # Number of requests hitting in the snoop filter with multiple (>1) holders of the requested data.
system.membus.snoop_filter.tot_snoops               0                       # Total number of snoops made to the snoop filter.
system.membus.snoop_filter.hit_single_snoops            0                       # Number of snoops hitting in the snoop filter with a single holder of the requested data.
system.membus.snoop_filter.hit_multi_snoops            0                       # Number of snoops hitting in the snoop filter with multiple (>1) holders of the requested data.
system.membus.pwrStateResidencyTicks::UNDEFINED  15267344125                       # Cumulative time (in ticks) in various power states
system.membus.trans_dist::ReadResp              84326                       # Transaction distribution
system.membus.trans_dist::WritebackDirty         3237                       # Transaction distribution
system.membus.trans_dist::CleanEvict            81778                       # Transaction distribution
system.membus.trans_dist::ReadExReq               690                       # Transaction distribution
system.membus.trans_dist::ReadExResp              690                       # Transaction distribution
system.membus.trans_dist::ReadSharedReq         84325                       # Transaction distribution
system.membus.pkt_count_system.l2.mem_side::system.mem_ctrls.port       255046                       # Packet count per connected master and slave (bytes)
system.membus.pkt_count_system.l2.mem_side::total       255046                       # Packet count per connected master and slave (bytes)
system.membus.pkt_count::total                 255046                       # Packet count per connected master and slave (bytes)
system.membus.pkt_size_system.l2.mem_side::system.mem_ctrls.port      5648192                       # Cumulative packet size per connected master and slave (bytes)
system.membus.pkt_size_system.l2.mem_side::total      5648192                       # Cumulative packet size per connected master and slave (bytes)
system.membus.pkt_size::total                 5648192                       # Cumulative packet size per connected master and slave (bytes)
system.membus.snoops                                0                       # Total snoops (count)
system.membus.snoopTraffic                          0                       # Total snoop traffic (bytes)
system.membus.snoop_fanout::samples             85015                       # Request fanout histogram
system.membus.snoop_fanout::mean                    0                       # Request fanout histogram
system.membus.snoop_fanout::stdev                   0                       # Request fanout histogram
system.membus.snoop_fanout::underflows              0      0.00%      0.00% # Request fanout histogram
system.membus.snoop_fanout::0                   85015    100.00%    100.00% # Request fanout histogram
system.membus.snoop_fanout::1                       0      0.00%    100.00% # Request fanout histogram
system.membus.snoop_fanout::overflows               0      0.00%    100.00% # Request fanout histogram
system.membus.snoop_fanout::min_value               0                       # Request fanout histogram
system.membus.snoop_fanout::max_value               0                       # Request fanout histogram
system.membus.snoop_fanout::total               85015                       # Request fanout histogram
system.membus.reqLayer12.occupancy          207750000                       # Layer occupancy (ticks)
system.membus.reqLayer12.utilization              1.4                       # Layer utilization (%)
system.membus.respLayer1.occupancy          467568500                       # Layer occupancy (ticks)
system.membus.respLayer1.utilization              3.1                       # Layer utilization (%)
system.tol2bus.snoop_filter.tot_requests      1602456                       # Total number of requests made to the snoop filter.
system.tol2bus.snoop_filter.hit_single_requests       801226                       # Number of requests hitting in the snoop filter with a single holder of the requested data.
system.tol2bus.snoop_filter.hit_multi_requests         1706                       # Number of requests hitting in the snoop filter with multiple (>1) holders of the requested data.
system.tol2bus.snoop_filter.tot_snoops              8                       # Total number of snoops made to the snoop filter.
system.tol2bus.snoop_filter.hit_single_snoops            8                       # Number of snoops hitting in the snoop filter with a single holder of the requested data.
system.tol2bus.snoop_filter.hit_multi_snoops            0                       # Number of snoops hitting in the snoop filter with multiple (>1) holders of the requested data.
system.tol2bus.pwrStateResidencyTicks::UNDEFINED  15267344125                       # Cumulative time (in ticks) in various power states
system.tol2bus.trans_dist::ReadResp            798033                       # Transaction distribution
system.tol2bus.trans_dist::WritebackDirty       105598                       # Transaction distribution
system.tol2bus.trans_dist::WritebackClean           22                       # Transaction distribution
system.tol2bus.trans_dist::CleanEvict          780631                       # Transaction distribution
system.tol2bus.trans_dist::ReadExReq             3195                       # Transaction distribution
system.tol2bus.trans_dist::ReadExResp            3195                       # Transaction distribution
system.tol2bus.trans_dist::ReadCleanReq            22                       # Transaction distribution
system.tol2bus.trans_dist::ReadSharedReq       798011                       # Transaction distribution
system.tol2bus.pkt_count_system.cpu0.icache.mem_side::system.l2.cpu_side           66                       # Packet count per connected master and slave (bytes)
system.tol2bus.pkt_count_system.cpu0.dcache.mem_side::system.l2.cpu_side      2403618                       # Packet count per connected master and slave (bytes)
system.tol2bus.pkt_count::total               2403684                       # Packet count per connected master and slave (bytes)
system.tol2bus.pkt_size_system.cpu0.icache.mem_side::system.l2.cpu_side         2816                       # Cumulative packet size per connected master and slave (bytes)
system.tol2bus.pkt_size_system.cpu0.dcache.mem_side::system.l2.cpu_side     57828288                       # Cumulative packet size per connected master and slave (bytes)
system.tol2bus.pkt_size::total               57831104                       # Cumulative packet size per connected master and slave (bytes)
system.tol2bus.snoops                           85023                       # Total snoops (count)
system.tol2bus.snoopTraffic                    207168                       # Total snoop traffic (bytes)
system.tol2bus.snoop_fanout::samples           886251                       # Request fanout histogram
system.tol2bus.snoop_fanout::mean            0.001932                       # Request fanout histogram
system.tol2bus.snoop_fanout::stdev           0.043909                       # Request fanout histogram
system.tol2bus.snoop_fanout::underflows             0      0.00%      0.00% # Request fanout histogram
system.tol2bus.snoop_fanout::0                 884539     99.81%     99.81% # Request fanout histogram
system.tol2bus.snoop_fanout::1                   1712      0.19%    100.00% # Request fanout histogram
system.tol2bus.snoop_fanout::2                      0      0.00%    100.00% # Request fanout histogram
system.tol2bus.snoop_fanout::3                      0      0.00%    100.00% # Request fanout histogram
system.tol2bus.snoop_fanout::4                      0      0.00%    100.00% # Request fanout histogram
system.tol2bus.snoop_fanout::5                      0      0.00%    100.00% # Request fanout histogram
system.tol2bus.snoop_fanout::6                      0      0.00%    100.00% # Request fanout histogram
system.tol2bus.snoop_fanout::7                      0      0.00%    100.00% # Request fanout histogram
system.tol2bus.snoop_fanout::8                      0      0.00%    100.00% # Request fanout histogram
system.tol2bus.snoop_fanout::9                      0      0.00%    100.00% # Request fanout histogram
system.tol2bus.snoop_fanout::10                     0      0.00%    100.00% # Request fanout histogram
system.tol2bus.snoop_fanout::11                     0      0.00%    100.00% # Request fanout histogram
system.tol2bus.snoop_fanout::12                     0      0.00%    100.00% # Request fanout histogram
system.tol2bus.snoop_fanout::13                     0      0.00%    100.00% # Request fanout histogram
system.tol2bus.snoop_fanout::14                     0      0.00%    100.00% # Request fanout histogram
system.tol2bus.snoop_fanout::15                     0      0.00%    100.00% # Request fanout histogram
system.tol2bus.snoop_fanout::16                     0      0.00%    100.00% # Request fanout histogram
system.tol2bus.snoop_fanout::17                     0      0.00%    100.00% # Request fanout histogram
system.tol2bus.snoop_fanout::18                     0      0.00%    100.00% # Request fanout histogram
system.tol2bus.snoop_fanout::19                     0      0.00%    100.00% # Request fanout histogram
system.tol2bus.snoop_fanout::20                     0      0.00%    100.00% # Request fanout histogram
system.tol2bus.snoop_fanout::21                     0      0.00%    100.00% # Request fanout histogram
system.tol2bus.snoop_fanout::22                     0      0.00%    100.00% # Request fanout histogram
system.tol2bus.snoop_fanout::23                     0      0.00%    100.00% # Request fanout histogram
system.tol2bus.snoop_fanout::24                     0      0.00%    100.00% # Request fanout histogram
system.tol2bus.snoop_fanout::overflows              0      0.00%    100.00% # Request fanout histogram
system.tol2bus.snoop_fanout::min_value              0                       # Request fanout histogram
system.tol2bus.snoop_fanout::max_value              1                       # Request fanout histogram
system.tol2bus.snoop_fanout::total             886251                       # Request fanout histogram
system.tol2bus.reqLayer0.occupancy          903611000                       # Layer occupancy (ticks)
system.tol2bus.reqLayer0.utilization              5.9                       # Layer utilization (%)
system.tol2bus.respLayer0.occupancy             33499                       # Layer occupancy (ticks)
system.tol2bus.respLayer0.utilization             0.0                       # Layer utilization (%)
system.tol2bus.respLayer1.occupancy        1201809000                       # Layer occupancy (ticks)
system.tol2bus.respLayer1.utilization             7.9                       # Layer utilization (%)

---------- End Simulation Statistics   ----------
