
---------- Begin Simulation Statistics ----------
sim_seconds                                  0.015267                       # Number of seconds simulated
sim_ticks                                 15267344125                       # Number of ticks simulated
final_tick                               2671785221875                       # Number of ticks from beginning of simulation (restored from checkpoints and never reset)
sim_freq                                 1000000000000                       # Frequency of simulated ticks
host_inst_rate                               34519377                       # Simulator instruction rate (inst/s)
host_op_rate                                 63892978                       # Simulator op (including micro ops) rate (op/s)
host_tick_rate                               95834797                       # Simulator tick rate (ticks/s)
host_mem_usage                                3428912                       # Number of bytes of host memory used
host_seconds                                   159.31                       # Real time elapsed on the host
sim_insts                                  5499245621                       # Number of instructions simulated
sim_ops                                   10178724213                       # Number of ops (including micro ops) simulated
system.voltage_domain.voltage                       1                       # Voltage in Volts
system.clk_domain.clock                          1000                       # Clock period in ticks
system.mem_ctrls.pwrStateResidencyTicks::UNDEFINED  15267344125                       # Cumulative time (in ticks) in various power states
system.mem_ctrls.bytes_read::cpu0.inst            384                       # Number of bytes read from this memory
system.mem_ctrls.bytes_read::cpu0.data         412416                       # Number of bytes read from this memory
system.mem_ctrls.bytes_read::total             412800                       # Number of bytes read from this memory
system.mem_ctrls.bytes_inst_read::cpu0.inst          384                       # Number of instructions bytes read from this memory
system.mem_ctrls.bytes_inst_read::total           384                       # Number of instructions bytes read from this memory
system.mem_ctrls.bytes_written::writebacks       160640                       # Number of bytes written to this memory
system.mem_ctrls.bytes_written::total          160640                       # Number of bytes written to this memory
system.mem_ctrls.num_reads::cpu0.inst               6                       # Number of read requests responded to by this memory
system.mem_ctrls.num_reads::cpu0.data            6444                       # Number of read requests responded to by this memory
system.mem_ctrls.num_reads::total                6450                       # Number of read requests responded to by this memory
system.mem_ctrls.num_writes::writebacks          2510                       # Number of write requests responded to by this memory
system.mem_ctrls.num_writes::total               2510                       # Number of write requests responded to by this memory
system.mem_ctrls.bw_read::cpu0.inst             25152                       # Total read bandwidth from this memory (bytes/s)
system.mem_ctrls.bw_read::cpu0.data          27012950                       # Total read bandwidth from this memory (bytes/s)
system.mem_ctrls.bw_read::total              27038101                       # Total read bandwidth from this memory (bytes/s)
system.mem_ctrls.bw_inst_read::cpu0.inst        25152                       # Instruction read bandwidth from this memory (bytes/s)
system.mem_ctrls.bw_inst_read::total            25152                       # Instruction read bandwidth from this memory (bytes/s)
system.mem_ctrls.bw_write::writebacks        10521804                       # Write bandwidth from this memory (bytes/s)
system.mem_ctrls.bw_write::total             10521804                       # Write bandwidth from this memory (bytes/s)
system.mem_ctrls.bw_total::writebacks        10521804                       # Total bandwidth to/from this memory (bytes/s)
system.mem_ctrls.bw_total::cpu0.inst            25152                       # Total bandwidth to/from this memory (bytes/s)
system.mem_ctrls.bw_total::cpu0.data         27012950                       # Total bandwidth to/from this memory (bytes/s)
system.mem_ctrls.bw_total::total             37559905                       # Total bandwidth to/from this memory (bytes/s)
system.mem_ctrls.readReqs                        6450                       # Number of read requests accepted
system.mem_ctrls.writeReqs                       2510                       # Number of write requests accepted
system.mem_ctrls.readBursts                      6450                       # Number of DRAM read bursts, including those serviced by the write queue
system.mem_ctrls.writeBursts                     2510                       # Number of DRAM write bursts, including those merged in the write queue
system.mem_ctrls.bytesReadDRAM                 412800                       # Total number of bytes read from DRAM
system.mem_ctrls.bytesReadWrQ                       0                       # Total number of bytes read from write queue
system.mem_ctrls.bytesWritten                  160384                       # Total number of bytes written to DRAM
system.mem_ctrls.bytesReadSys                  412800                       # Total read bytes from the system interface side
system.mem_ctrls.bytesWrittenSys               160640                       # Total written bytes from the system interface side
system.mem_ctrls.servicedByWrQ                      0                       # Number of DRAM read bursts serviced by the write queue
system.mem_ctrls.mergedWrBursts                     0                       # Number of DRAM write bursts merged with an existing one
system.mem_ctrls.neitherReadNorWriteReqs            0                       # Number of requests that are neither read nor write
system.mem_ctrls.perBankRdBursts::0               617                       # Per bank write bursts
system.mem_ctrls.perBankRdBursts::1               622                       # Per bank write bursts
system.mem_ctrls.perBankRdBursts::2               390                       # Per bank write bursts
system.mem_ctrls.perBankRdBursts::3               390                       # Per bank write bursts
system.mem_ctrls.perBankRdBursts::4               377                       # Per bank write bursts
system.mem_ctrls.perBankRdBursts::5               336                       # Per bank write bursts
system.mem_ctrls.perBankRdBursts::6               283                       # Per bank write bursts
system.mem_ctrls.perBankRdBursts::7               450                       # Per bank write bursts
system.mem_ctrls.perBankRdBursts::8               325                       # Per bank write bursts
system.mem_ctrls.perBankRdBursts::9               279                       # Per bank write bursts
system.mem_ctrls.perBankRdBursts::10              317                       # Per bank write bursts
system.mem_ctrls.perBankRdBursts::11              376                       # Per bank write bursts
system.mem_ctrls.perBankRdBursts::12              374                       # Per bank write bursts
system.mem_ctrls.perBankRdBursts::13              375                       # Per bank write bursts
system.mem_ctrls.perBankRdBursts::14              413                       # Per bank write bursts
system.mem_ctrls.perBankRdBursts::15              526                       # Per bank write bursts
system.mem_ctrls.perBankWrBursts::0               237                       # Per bank write bursts
system.mem_ctrls.perBankWrBursts::1               232                       # Per bank write bursts
system.mem_ctrls.perBankWrBursts::2               130                       # Per bank write bursts
system.mem_ctrls.perBankWrBursts::3                48                       # Per bank write bursts
system.mem_ctrls.perBankWrBursts::4                11                       # Per bank write bursts
system.mem_ctrls.perBankWrBursts::5                 8                       # Per bank write bursts
system.mem_ctrls.perBankWrBursts::6                21                       # Per bank write bursts
system.mem_ctrls.perBankWrBursts::7                72                       # Per bank write bursts
system.mem_ctrls.perBankWrBursts::8                67                       # Per bank write bursts
system.mem_ctrls.perBankWrBursts::9                87                       # Per bank write bursts
system.mem_ctrls.perBankWrBursts::10              179                       # Per bank write bursts
system.mem_ctrls.perBankWrBursts::11              177                       # Per bank write bursts
system.mem_ctrls.perBankWrBursts::12              268                       # Per bank write bursts
system.mem_ctrls.perBankWrBursts::13              299                       # Per bank write bursts
system.mem_ctrls.perBankWrBursts::14              324                       # Per bank write bursts
system.mem_ctrls.perBankWrBursts::15              346                       # Per bank write bursts
system.mem_ctrls.numRdRetry                         0                       # Number of times read queue was full causing retry
system.mem_ctrls.numWrRetry                         0                       # Number of times write queue was full causing retry
system.mem_ctrls.totGap                   15266627500                       # Total gap between requests
system.mem_ctrls.readPktSize::0                     0                       # Read request sizes (log2)
system.mem_ctrls.readPktSize::1                     0                       # Read request sizes (log2)
system.mem_ctrls.readPktSize::2                     0                       # Read request sizes (log2)
system.mem_ctrls.readPktSize::3                     0                       # Read request sizes (log2)
system.mem_ctrls.readPktSize::4                     0                       # Read request sizes (log2)
system.mem_ctrls.readPktSize::5                     0                       # Read request sizes (log2)
system.mem_ctrls.readPktSize::6                  6450                       # Read request sizes (log2)
system.mem_ctrls.writePktSize::0                    0                       # Write request sizes (log2)
system.mem_ctrls.writePktSize::1                    0                       # Write request sizes (log2)
system.mem_ctrls.writePktSize::2                    0                       # Write request sizes (log2)
system.mem_ctrls.writePktSize::3                    0                       # Write request sizes (log2)
system.mem_ctrls.writePktSize::4                    0                       # Write request sizes (log2)
system.mem_ctrls.writePktSize::5                    0                       # Write request sizes (log2)
system.mem_ctrls.writePktSize::6                 2510                       # Write request sizes (log2)
system.mem_ctrls.rdQLenPdf::0                    5982                       # What read queue length does an incoming req see
system.mem_ctrls.rdQLenPdf::1                     433                       # What read queue length does an incoming req see
system.mem_ctrls.rdQLenPdf::2                      35                       # What read queue length does an incoming req see
system.mem_ctrls.rdQLenPdf::3                       0                       # What read queue length does an incoming req see
system.mem_ctrls.rdQLenPdf::4                       0                       # What read queue length does an incoming req see
system.mem_ctrls.rdQLenPdf::5                       0                       # What read queue length does an incoming req see
system.mem_ctrls.rdQLenPdf::6                       0                       # What read queue length does an incoming req see
system.mem_ctrls.rdQLenPdf::7                       0                       # What read queue length does an incoming req see
system.mem_ctrls.rdQLenPdf::8                       0                       # What read queue length does an incoming req see
system.mem_ctrls.rdQLenPdf::9                       0                       # What read queue length does an incoming req see
system.mem_ctrls.rdQLenPdf::10                      0                       # What read queue length does an incoming req see
system.mem_ctrls.rdQLenPdf::11                      0                       # What read queue length does an incoming req see
system.mem_ctrls.rdQLenPdf::12                      0                       # What read queue length does an incoming req see
system.mem_ctrls.rdQLenPdf::13                      0                       # What read queue length does an incoming req see
system.mem_ctrls.rdQLenPdf::14                      0                       # What read queue length does an incoming req see
system.mem_ctrls.rdQLenPdf::15                      0                       # What read queue length does an incoming req see
system.mem_ctrls.rdQLenPdf::16                      0                       # What read queue length does an incoming req see
system.mem_ctrls.rdQLenPdf::17                      0                       # What read queue length does an incoming req see
system.mem_ctrls.rdQLenPdf::18                      0                       # What read queue length does an incoming req see
system.mem_ctrls.rdQLenPdf::19                      0                       # What read queue length does an incoming req see
system.mem_ctrls.rdQLenPdf::20                      0                       # What read queue length does an incoming req see
system.mem_ctrls.rdQLenPdf::21                      0                       # What read queue length does an incoming req see
system.mem_ctrls.rdQLenPdf::22                      0                       # What read queue length does an incoming req see
system.mem_ctrls.rdQLenPdf::23                      0                       # What read queue length does an incoming req see
system.mem_ctrls.rdQLenPdf::24                      0                       # What read queue length does an incoming req see
system.mem_ctrls.rdQLenPdf::25                      0                       # What read queue length does an incoming req see
system.mem_ctrls.rdQLenPdf::26                      0                       # What read queue length does an incoming req see
system.mem_ctrls.rdQLenPdf::27                      0                       # What read queue length does an incoming req see
system.mem_ctrls.rdQLenPdf::28                      0                       # What read queue length does an incoming req see
system.mem_ctrls.rdQLenPdf::29                      0                       # What read queue length does an incoming req see
system.mem_ctrls.rdQLenPdf::30                      0                       # What read queue length does an incoming req see
system.mem_ctrls.rdQLenPdf::31                      0                       # What read queue length does an incoming req see
system.mem_ctrls.wrQLenPdf::0                       0                       # What write queue length does an incoming req see
system.mem_ctrls.wrQLenPdf::1                       0                       # What write queue length does an incoming req see
system.mem_ctrls.wrQLenPdf::2                       0                       # What write queue length does an incoming req see
system.mem_ctrls.wrQLenPdf::3                       0                       # What write queue length does an incoming req see
system.mem_ctrls.wrQLenPdf::4                       0                       # What write queue length does an incoming req see
system.mem_ctrls.wrQLenPdf::5                       0                       # What write queue length does an incoming req see
system.mem_ctrls.wrQLenPdf::6                       0                       # What write queue length does an incoming req see
system.mem_ctrls.wrQLenPdf::7                       0                       # What write queue length does an incoming req see
system.mem_ctrls.wrQLenPdf::8                       0                       # What write queue length does an incoming req see
system.mem_ctrls.wrQLenPdf::9                       0                       # What write queue length does an incoming req see
system.mem_ctrls.wrQLenPdf::10                      0                       # What write queue length does an incoming req see
system.mem_ctrls.wrQLenPdf::11                      0                       # What write queue length does an incoming req see
system.mem_ctrls.wrQLenPdf::12                      0                       # What write queue length does an incoming req see
system.mem_ctrls.wrQLenPdf::13                      0                       # What write queue length does an incoming req see
system.mem_ctrls.wrQLenPdf::14                      0                       # What write queue length does an incoming req see
system.mem_ctrls.wrQLenPdf::15                    119                       # What write queue length does an incoming req see
system.mem_ctrls.wrQLenPdf::16                    121                       # What write queue length does an incoming req see
system.mem_ctrls.wrQLenPdf::17                    140                       # What write queue length does an incoming req see
system.mem_ctrls.wrQLenPdf::18                    140                       # What write queue length does an incoming req see
system.mem_ctrls.wrQLenPdf::19                    141                       # What write queue length does an incoming req see
system.mem_ctrls.wrQLenPdf::20                    142                       # What write queue length does an incoming req see
system.mem_ctrls.wrQLenPdf::21                    141                       # What write queue length does an incoming req see
system.mem_ctrls.wrQLenPdf::22                    141                       # What write queue length does an incoming req see
system.mem_ctrls.wrQLenPdf::23                    141                       # What write queue length does an incoming req see
system.mem_ctrls.wrQLenPdf::24                    141                       # What write queue length does an incoming req see
system.mem_ctrls.wrQLenPdf::25                    142                       # What write queue length does an incoming req see
system.mem_ctrls.wrQLenPdf::26                    141                       # What write queue length does an incoming req see
system.mem_ctrls.wrQLenPdf::27                    143                       # What write queue length does an incoming req see
system.mem_ctrls.wrQLenPdf::28                    142                       # What write queue length does an incoming req see
system.mem_ctrls.wrQLenPdf::29                    144                       # What write queue length does an incoming req see
system.mem_ctrls.wrQLenPdf::30                    146                       # What write queue length does an incoming req see
system.mem_ctrls.wrQLenPdf::31                    141                       # What write queue length does an incoming req see
system.mem_ctrls.wrQLenPdf::32                    144                       # What write queue length does an incoming req see
system.mem_ctrls.wrQLenPdf::33                      0                       # What write queue length does an incoming req see
system.mem_ctrls.wrQLenPdf::34                      0                       # What write queue length does an incoming req see
system.mem_ctrls.wrQLenPdf::35                      0                       # What write queue length does an incoming req see
system.mem_ctrls.wrQLenPdf::36                      0                       # What write queue length does an incoming req see
system.mem_ctrls.wrQLenPdf::37                      0                       # What write queue length does an incoming req see
system.mem_ctrls.wrQLenPdf::38                      0                       # What write queue length does an incoming req see
system.mem_ctrls.wrQLenPdf::39                      0                       # What write queue length does an incoming req see
system.mem_ctrls.wrQLenPdf::40                      0                       # What write queue length does an incoming req see
system.mem_ctrls.wrQLenPdf::41                      0                       # What write queue length does an incoming req see
system.mem_ctrls.wrQLenPdf::42                      0                       # What write queue length does an incoming req see
system.mem_ctrls.wrQLenPdf::43                      0                       # What write queue length does an incoming req see
system.mem_ctrls.wrQLenPdf::44                      0                       # What write queue length does an incoming req see
system.mem_ctrls.wrQLenPdf::45                      0                       # What write queue length does an incoming req see
system.mem_ctrls.wrQLenPdf::46                      0                       # What write queue length does an incoming req see
system.mem_ctrls.wrQLenPdf::47                      0                       # What write queue length does an incoming req see
system.mem_ctrls.wrQLenPdf::48                      0                       # What write queue length does an incoming req see
system.mem_ctrls.wrQLenPdf::49                      0                       # What write queue length does an incoming req see
system.mem_ctrls.wrQLenPdf::50                      0                       # What write queue length does an incoming req see
system.mem_ctrls.wrQLenPdf::51                      0                       # What write queue length does an incoming req see
system.mem_ctrls.wrQLenPdf::52                      0                       # What write queue length does an incoming req see
system.mem_ctrls.wrQLenPdf::53                      0                       # What write queue length does an incoming req see
system.mem_ctrls.wrQLenPdf::54                      0                       # What write queue length does an incoming req see
system.mem_ctrls.wrQLenPdf::55                      0                       # What write queue length does an incoming req see
system.mem_ctrls.wrQLenPdf::56                      0                       # What write queue length does an incoming req see
system.mem_ctrls.wrQLenPdf::57                      0                       # What write queue length does an incoming req see
system.mem_ctrls.wrQLenPdf::58                      0                       # What write queue length does an incoming req see
system.mem_ctrls.wrQLenPdf::59                      0                       # What write queue length does an incoming req see
system.mem_ctrls.wrQLenPdf::60                      0                       # What write queue length does an incoming req see
system.mem_ctrls.wrQLenPdf::61                      0                       # What write queue length does an incoming req see
system.mem_ctrls.wrQLenPdf::62                      0                       # What write queue length does an incoming req see
system.mem_ctrls.wrQLenPdf::63                      0                       # What write queue length does an incoming req see
system.mem_ctrls.bytesPerActivate::samples         5020                       # Bytes accessed per row activation
system.mem_ctrls.bytesPerActivate::mean    114.180080                       # Bytes accessed per row activation
system.mem_ctrls.bytesPerActivate::gmean    89.664128                       # Bytes accessed per row activation
system.mem_ctrls.bytesPerActivate::stdev   140.329624                       # Bytes accessed per row activation
system.mem_ctrls.bytesPerActivate::0-127         3220     64.14%     64.14% # Bytes accessed per row activation
system.mem_ctrls.bytesPerActivate::128-255         1592     31.71%     95.86% # Bytes accessed per row activation
system.mem_ctrls.bytesPerActivate::256-383           46      0.92%     96.77% # Bytes accessed per row activation
system.mem_ctrls.bytesPerActivate::384-511           20      0.40%     97.17% # Bytes accessed per row activation
system.mem_ctrls.bytesPerActivate::512-639           15      0.30%     97.47% # Bytes accessed per row activation
system.mem_ctrls.bytesPerActivate::640-767           21      0.42%     97.89% # Bytes accessed per row activation
system.mem_ctrls.bytesPerActivate::768-895           22      0.44%     98.33% # Bytes accessed per row activation
system.mem_ctrls.bytesPerActivate::896-1023           23      0.46%     98.78% # Bytes accessed per row activation
system.mem_ctrls.bytesPerActivate::1024-1151           61      1.22%    100.00% # Bytes accessed per row activation
system.mem_ctrls.bytesPerActivate::total         5020                       # Bytes accessed per row activation
system.mem_ctrls.rdPerTurnAround::samples          141                       # Reads before turning the bus around for writes
system.mem_ctrls.rdPerTurnAround::mean      45.914894                       # Reads before turning the bus around for writes
system.mem_ctrls.rdPerTurnAround::gmean     36.155584                       # Reads before turning the bus around for writes
system.mem_ctrls.rdPerTurnAround::stdev     52.753130                       # Reads before turning the bus around for writes
system.mem_ctrls.rdPerTurnAround::16-31            72     51.06%     51.06% # Reads before turning the bus around for writes
system.mem_ctrls.rdPerTurnAround::32-47            54     38.30%     89.36% # Reads before turning the bus around for writes
system.mem_ctrls.rdPerTurnAround::48-63             2      1.42%     90.78% # Reads before turning the bus around for writes
system.mem_ctrls.rdPerTurnAround::64-79             2      1.42%     92.20% # Reads before turning the bus around for writes
system.mem_ctrls.rdPerTurnAround::80-95             2      1.42%     93.62% # Reads before turning the bus around for writes
system.mem_ctrls.rdPerTurnAround::144-159            2      1.42%     95.04% # Reads before turning the bus around for writes
system.mem_ctrls.rdPerTurnAround::192-207            1      0.71%     95.74% # Reads before turning the bus around for writes
system.mem_ctrls.rdPerTurnAround::208-223            1      0.71%     96.45% # Reads before turning the bus around for writes
system.mem_ctrls.rdPerTurnAround::224-239            1      0.71%     97.16% # Reads before turning the bus around for writes
system.mem_ctrls.rdPerTurnAround::256-271            1      0.71%     97.87% # Reads before turning the bus around for writes
system.mem_ctrls.rdPerTurnAround::272-287            1      0.71%     98.58% # Reads before turning the bus around for writes
system.mem_ctrls.rdPerTurnAround::304-319            2      1.42%    100.00% # Reads before turning the bus around for writes
system.mem_ctrls.rdPerTurnAround::total           141                       # Reads before turning the bus around for writes
system.mem_ctrls.wrPerTurnAround::samples          141                       # Writes before turning the bus around for reads
system.mem_ctrls.wrPerTurnAround::mean      17.773050                       # Writes before turning the bus around for reads
system.mem_ctrls.wrPerTurnAround::gmean     17.755383                       # Writes before turning the bus around for reads
system.mem_ctrls.wrPerTurnAround::stdev      0.777990                       # Writes before turning the bus around for reads
system.mem_ctrls.wrPerTurnAround::16               20     14.18%     14.18% # Writes before turning the bus around for reads
system.mem_ctrls.wrPerTurnAround::17                2      1.42%     15.60% # Writes before turning the bus around for reads
system.mem_ctrls.wrPerTurnAround::18              109     77.30%     92.91% # Writes before turning the bus around for reads
system.mem_ctrls.wrPerTurnAround::19               10      7.09%    100.00% # Writes before turning the bus around for reads
system.mem_ctrls.wrPerTurnAround::total           141                       # Writes before turning the bus around for reads
system.mem_ctrls.totQLat                    242447000                       # Total ticks spent queuing
system.mem_ctrls.totMemAccLat               363384500                       # Total ticks spent from burst creation until serviced by the DRAM
system.mem_ctrls.totBusLat                   32250000                       # Total ticks spent in databus transfers
system.mem_ctrls.avgQLat                     37588.68                       # Average queueing delay per DRAM burst
system.mem_ctrls.avgBusLat                    5000.00                       # Average bus latency per DRAM burst
system.mem_ctrls.avgMemAccLat                56338.68                       # Average memory access latency per DRAM burst
system.mem_ctrls.avgRdBW                        27.04                       # Average DRAM read bandwidth in MiByte/s
system.mem_ctrls.avgWrBW                        10.51                       # Average achieved write bandwidth in MiByte/s
system.mem_ctrls.avgRdBWSys                     27.04                       # Average system read bandwidth in MiByte/s
system.mem_ctrls.avgWrBWSys                     10.52                       # Average system write bandwidth in MiByte/s
system.mem_ctrls.peakBW                      12800.00                       # Theoretical peak bandwidth in MiByte/s
system.mem_ctrls.busUtil                         0.29                       # Data bus utilization in percentage
system.mem_ctrls.busUtilRead                     0.21                       # Data bus utilization in percentage for reads
system.mem_ctrls.busUtilWrite                    0.08                       # Data bus utilization in percentage for writes
system.mem_ctrls.avgRdQLen                       1.12                       # Average read queue length when enqueuing
system.mem_ctrls.avgWrQLen                      24.84                       # Average write queue length when enqueuing
system.mem_ctrls.readRowHits                     1806                       # Number of row buffer hits during reads
system.mem_ctrls.writeRowHits                    2130                       # Number of row buffer hits during writes
system.mem_ctrls.readRowHitRate                 28.00                       # Row buffer hit rate for reads
system.mem_ctrls.writeRowHitRate                84.86                       # Row buffer hit rate for writes
system.mem_ctrls.avgGap                    1703864.68                       # Average gap between requests
system.mem_ctrls.pageHitRate                    43.93                       # Row buffer hit rate, read and write combined
system.mem_ctrls_0.actEnergy                 19635000                       # Energy for activate commands per rank (pJ)
system.mem_ctrls_0.preEnergy                 10428660                       # Energy for precharge commands per rank (pJ)
system.mem_ctrls_0.readEnergy                24740100                       # Energy for read commands per rank (pJ)
system.mem_ctrls_0.writeEnergy                3961980                       # Energy for write commands per rank (pJ)
system.mem_ctrls_0.refreshEnergy         1104508080.000000                       # Energy for refresh commands per rank (pJ)
system.mem_ctrls_0.actBackEnergy            328410060                       # Energy for active background per rank (pJ)
system.mem_ctrls_0.preBackEnergy             38130720                       # Energy for precharge background per rank (pJ)
system.mem_ctrls_0.actPowerDownEnergy      3124126110                       # Energy for active power-down per rank (pJ)
system.mem_ctrls_0.prePowerDownEnergy      1961369280                       # Energy for precharge power-down per rank (pJ)
system.mem_ctrls_0.selfRefreshEnergy        689574780                       # Energy for self refresh per rank (pJ)
system.mem_ctrls_0.totalEnergy             7305046950                       # Total energy per rank (pJ)
system.mem_ctrls_0.averagePower            478.475293                       # Core power per rank (mW)
system.mem_ctrls_0.totalIdleTime          14443352500                       # Total Idle time Per DRAM Rank
system.mem_ctrls_0.memoryStateTime::IDLE     53244000                       # Time in different power states
system.mem_ctrls_0.memoryStateTime::REF     468264000                       # Time in different power states
system.mem_ctrls_0.memoryStateTime::SREF   2488597250                       # Time in different power states
system.mem_ctrls_0.memoryStateTime::PRE_PDN   5107638500                       # Time in different power states
system.mem_ctrls_0.memoryStateTime::ACT     298147000                       # Time in different power states
system.mem_ctrls_0.memoryStateTime::ACT_PDN   6851453375                       # Time in different power states
system.mem_ctrls_1.actEnergy                 16207800                       # Energy for activate commands per rank (pJ)
system.mem_ctrls_1.preEnergy                  8622240                       # Energy for precharge commands per rank (pJ)
system.mem_ctrls_1.readEnergy                21312900                       # Energy for read commands per rank (pJ)
system.mem_ctrls_1.writeEnergy                9119340                       # Energy for write commands per rank (pJ)
system.mem_ctrls_1.refreshEnergy         927491760.000000                       # Energy for refresh commands per rank (pJ)
system.mem_ctrls_1.actBackEnergy            332125320                       # Energy for active background per rank (pJ)
system.mem_ctrls_1.preBackEnergy             27072960                       # Energy for precharge background per rank (pJ)
system.mem_ctrls_1.actPowerDownEnergy      2779073760                       # Energy for active power-down per rank (pJ)
system.mem_ctrls_1.prePowerDownEnergy      1625625600                       # Energy for precharge power-down per rank (pJ)
system.mem_ctrls_1.selfRefreshEnergy       1041245340                       # Energy for self refresh per rank (pJ)
system.mem_ctrls_1.totalEnergy             6788202570                       # Total energy per rank (pJ)
system.mem_ctrls_1.averagePower            444.622360                       # Core power per rank (mW)
system.mem_ctrls_1.totalIdleTime          14421612000                       # Total Idle time Per DRAM Rank
system.mem_ctrls_1.memoryStateTime::IDLE     30594000                       # Time in different power states
system.mem_ctrls_1.memoryStateTime::REF     392868000                       # Time in different power states
system.mem_ctrls_1.memoryStateTime::SREF   4139962875                       # Time in different power states
system.mem_ctrls_1.memoryStateTime::PRE_PDN   4233392250                       # Time in different power states
system.mem_ctrls_1.memoryStateTime::ACT     376242500                       # Time in different power states
system.mem_ctrls_1.memoryStateTime::ACT_PDN   6094284500                       # Time in different power states
system.pwrStateResidencyTicks::UNDEFINED  15267344125                       # Cumulative time (in ticks) in various power states
system.cpu0.branchPred.lookups                7867161                       # Number of BP lookups
system.cpu0.branchPred.condPredicted          7867161                       # Number of conditional branches predicted
system.cpu0.branchPred.condIncorrect           428921                       # Number of conditional branches incorrect
system.cpu0.branchPred.BTBLookups             6290615                       # Number of BTB lookups
system.cpu0.branchPred.BTBHits                      0                       # Number of BTB hits
system.cpu0.branchPred.BTBCorrect                   0                       # Number of correct BTB predictions (this stat may not work properly.
system.cpu0.branchPred.BTBHitPct             0.000000                       # BTB Hit Percentage
system.cpu0.branchPred.usedRAS                 358919                       # Number of times the RAS was used to get a target.
system.cpu0.branchPred.RASInCorrect             50865                       # Number of incorrect RAS predictions.
system.cpu0.branchPred.indirectLookups        6290615                       # Number of indirect predictor lookups.
system.cpu0.branchPred.indirectHits           3133338                       # Number of indirect target hits.
system.cpu0.branchPred.indirectMisses         3157277                       # Number of indirect misses.
system.cpu0.branchPredindirectMispredicted       184387                       # Number of mispredicted indirect branches.
system.cpu_voltage_domain.voltage                   1                       # Voltage in Volts
system.cpu_clk_domain.clock                       500                       # Clock period in ticks
system.cpu0.dtb.walker.pwrStateResidencyTicks::UNDEFINED  15267344125                       # Cumulative time (in ticks) in various power states
system.cpu0.dtb.rdAccesses                    4027515                       # TLB accesses on read requests
system.cpu0.dtb.wrAccesses                     529979                       # TLB accesses on write requests
system.cpu0.dtb.rdMisses                       716300                       # TLB misses on read requests
system.cpu0.dtb.wrMisses                         9339                       # TLB misses on write requests
system.cpu0.apic_clk_domain.clock                8000                       # Clock period in ticks
system.cpu0.interrupts.pwrStateResidencyTicks::UNDEFINED  15267344125                       # Cumulative time (in ticks) in various power states
system.cpu0.itb.walker.pwrStateResidencyTicks::UNDEFINED  15267344125                       # Cumulative time (in ticks) in various power states
system.cpu0.itb.rdAccesses                          0                       # TLB accesses on read requests
system.cpu0.itb.wrAccesses                    6165128                       # TLB accesses on write requests
system.cpu0.itb.rdMisses                            0                       # TLB misses on read requests
system.cpu0.itb.wrMisses                        27721                       # TLB misses on write requests
system.cpu0.workload.numSyscalls                    1                       # Number of system calls
system.cpu0.pwrStateResidencyTicks::ON    15267344125                       # Cumulative time (in ticks) in various power states
system.cpu0.numCycles                        30534688                       # number of cpu cycles simulated
system.cpu0.numWorkItemsStarted                     0                       # number of work items this cpu started
system.cpu0.numWorkItemsCompleted                   0                       # number of work items this cpu completed
system.cpu0.fetch.icacheStallCycles           6368752                       # Number of cycles fetch is stalled on an Icache miss
system.cpu0.fetch.Insts                      24725057                       # Number of instructions fetch has processed
system.cpu0.fetch.Branches                    7867161                       # Number of branches that fetch encountered
system.cpu0.fetch.predictedBranches           3492257                       # Number of branches that fetch has predicted taken
system.cpu0.fetch.Cycles                     23524834                       # Number of cycles fetch has run and was not squashing or blocked
system.cpu0.fetch.SquashCycles                 875046                       # Number of cycles fetch has spent squashing
system.cpu0.fetch.TlbCycles                       942                       # Number of cycles fetch has spent waiting for tlb
system.cpu0.fetch.MiscStallCycles                6265                       # Number of cycles fetch has spent waiting on interrupts, or bad addresses, or out of MSHRs
system.cpu0.fetch.PendingTrapStallCycles       194864                       # Number of stall cycles due to pending traps
system.cpu0.fetch.PendingQuiesceStallCycles           36                       # Number of stall cycles due to pending quiesce instructions
system.cpu0.fetch.CacheLines                  6137408                       # Number of cache lines fetched
system.cpu0.fetch.IcacheSquashes                86337                       # Number of outstanding Icache misses that were squashed
system.cpu0.fetch.ItlbSquashes                     13                       # Number of outstanding ITLB misses that were squashed
system.cpu0.fetch.rateDist::samples          30533216                       # Number of instructions fetched each cycle (Total)
system.cpu0.fetch.rateDist::mean             1.635571                       # Number of instructions fetched each cycle (Total)
system.cpu0.fetch.rateDist::stdev            2.908568                       # Number of instructions fetched each cycle (Total)
system.cpu0.fetch.rateDist::underflows              0      0.00%      0.00% # Number of instructions fetched each cycle (Total)
system.cpu0.fetch.rateDist::0                21375243     70.01%     70.01% # Number of instructions fetched each cycle (Total)
system.cpu0.fetch.rateDist::1                  180170      0.59%     70.60% # Number of instructions fetched each cycle (Total)
system.cpu0.fetch.rateDist::2                 2690467      8.81%     79.41% # Number of instructions fetched each cycle (Total)
system.cpu0.fetch.rateDist::3                  230510      0.75%     80.16% # Number of instructions fetched each cycle (Total)
system.cpu0.fetch.rateDist::4                  629459      2.06%     82.22% # Number of instructions fetched each cycle (Total)
system.cpu0.fetch.rateDist::5                  406346      1.33%     83.56% # Number of instructions fetched each cycle (Total)
system.cpu0.fetch.rateDist::6                  429057      1.41%     84.96% # Number of instructions fetched each cycle (Total)
system.cpu0.fetch.rateDist::7                  173016      0.57%     85.53% # Number of instructions fetched each cycle (Total)
system.cpu0.fetch.rateDist::8                 4418948     14.47%    100.00% # Number of instructions fetched each cycle (Total)
system.cpu0.fetch.rateDist::overflows               0      0.00%    100.00% # Number of instructions fetched each cycle (Total)
system.cpu0.fetch.rateDist::min_value               0                       # Number of instructions fetched each cycle (Total)
system.cpu0.fetch.rateDist::max_value               8                       # Number of instructions fetched each cycle (Total)
system.cpu0.fetch.rateDist::total            30533216                       # Number of instructions fetched each cycle (Total)
system.cpu0.fetch.branchRate                 0.257647                       # Number of branch fetches per cycle
system.cpu0.fetch.rate                       0.809737                       # Number of inst fetches per cycle
system.cpu0.decode.IdleCycles                 3705461                       # Number of cycles decode is idle
system.cpu0.decode.BlockedCycles             19770478                       # Number of cycles decode is blocked
system.cpu0.decode.RunCycles                  5313718                       # Number of cycles decode is running
system.cpu0.decode.UnblockCycles              1306036                       # Number of cycles decode is unblocking
system.cpu0.decode.SquashCycles                437523                       # Number of cycles decode is squashing
system.cpu0.decode.DecodedInsts              43261681                       # Number of instructions handled by decode
system.cpu0.rename.SquashCycles                437523                       # Number of cycles rename is squashing
system.cpu0.rename.IdleCycles                 4259937                       # Number of cycles rename is idle
system.cpu0.rename.BlockCycles               16045453                       # Number of cycles rename is blocking
system.cpu0.rename.serializeStallCycles         75883                       # count of cycles rename stalled for serializing inst
system.cpu0.rename.RunCycles                  5817537                       # Number of cycles rename is running
system.cpu0.rename.UnblockCycles              3896883                       # Number of cycles rename is unblocking
system.cpu0.rename.RenamedInsts              41280531                       # Number of instructions processed by rename
system.cpu0.rename.ROBFullEvents                93204                       # Number of times rename has blocked due to ROB full
system.cpu0.rename.IQFullEvents               3527090                       # Number of times rename has blocked due to IQ full
system.cpu0.rename.LQFullEvents                 83559                       # Number of times rename has blocked due to LQ full
system.cpu0.rename.SQFullEvents                 18460                       # Number of times rename has blocked due to SQ full
system.cpu0.rename.RenamedOperands           48941459                       # Number of destination operands rename has renamed
system.cpu0.rename.RenameLookups            112246328                       # Number of register rename lookups that rename has made
system.cpu0.rename.int_rename_lookups        56302232                       # Number of integer rename lookups
system.cpu0.rename.fp_rename_lookups           407710                       # Number of floating rename lookups
system.cpu0.rename.CommittedMaps             18081075                       # Number of HB maps that are committed
system.cpu0.rename.UndoneMaps                30860373                       # Number of HB maps that are undone due to squashing
system.cpu0.rename.serializingInsts              1873                       # count of serializing insts renamed
system.cpu0.rename.tempSerializingInsts          2334                       # count of temporary serializing insts renamed
system.cpu0.rename.skidInsts                  7398741                       # count of insts added to the skid buffer
system.cpu0.memDep0.insertedLoads             6700382                       # Number of loads inserted to the mem dependence unit.
system.cpu0.memDep0.insertedStores             773273                       # Number of stores inserted to the mem dependence unit.
system.cpu0.memDep0.conflictingLoads            45906                       # Number of conflicting loads.
system.cpu0.memDep0.conflictingStores           47632                       # Number of conflicting stores.
system.cpu0.iq.iqInstsAdded                  38232564                       # Number of instructions added to the IQ (excludes non-spec)
system.cpu0.iq.iqNonSpecInstsAdded              42134                       # Number of non-speculative instructions added to the IQ
system.cpu0.iq.iqInstsIssued                 28349782                       # Number of instructions issued
system.cpu0.iq.iqSquashedInstsIssued            65291                       # Number of squashed instructions issued
system.cpu0.iq.iqSquashedInstsExamined       23250750                       # Number of squashed instructions iterated over during squash; mainly for profiling
system.cpu0.iq.iqSquashedOperandsExamined     45232165                       # Number of squashed operands that are examined and possibly removed from graph
system.cpu0.iq.iqSquashedNonSpecRemoved         42133                       # Number of squashed non-spec instructions that were removed
system.cpu0.iq.issued_per_cycle::samples     30533216                       # Number of insts issued each cycle
system.cpu0.iq.issued_per_cycle::mean        0.928490                       # Number of insts issued each cycle
system.cpu0.iq.issued_per_cycle::stdev       1.690772                       # Number of insts issued each cycle
system.cpu0.iq.issued_per_cycle::underflows            0      0.00%      0.00% # Number of insts issued each cycle
system.cpu0.iq.issued_per_cycle::0           20570587     67.37%     67.37% # Number of insts issued each cycle
system.cpu0.iq.issued_per_cycle::1            3153521     10.33%     77.70% # Number of insts issued each cycle
system.cpu0.iq.issued_per_cycle::2            1989587      6.52%     84.22% # Number of insts issued each cycle
system.cpu0.iq.issued_per_cycle::3            1487155      4.87%     89.09% # Number of insts issued each cycle
system.cpu0.iq.issued_per_cycle::4            1568381      5.14%     94.22% # Number of insts issued each cycle
system.cpu0.iq.issued_per_cycle::5             738104      2.42%     96.64% # Number of insts issued each cycle
system.cpu0.iq.issued_per_cycle::6             570416      1.87%     98.51% # Number of insts issued each cycle
system.cpu0.iq.issued_per_cycle::7             274638      0.90%     99.41% # Number of insts issued each cycle
system.cpu0.iq.issued_per_cycle::8             180827      0.59%    100.00% # Number of insts issued each cycle
system.cpu0.iq.issued_per_cycle::overflows            0      0.00%    100.00% # Number of insts issued each cycle
system.cpu0.iq.issued_per_cycle::min_value            0                       # Number of insts issued each cycle
system.cpu0.iq.issued_per_cycle::max_value            8                       # Number of insts issued each cycle
system.cpu0.iq.issued_per_cycle::total       30533216                       # Number of insts issued each cycle
system.cpu0.iq.fu_full::No_OpClass                  0      0.00%      0.00% # attempts to use FU when none available
system.cpu0.iq.fu_full::IntAlu                 126202     77.39%     77.39% # attempts to use FU when none available
system.cpu0.iq.fu_full::IntMult                     0      0.00%     77.39% # attempts to use FU when none available
system.cpu0.iq.fu_full::IntDiv                      0      0.00%     77.39% # attempts to use FU when none available
system.cpu0.iq.fu_full::FloatAdd                12079      7.41%     84.80% # attempts to use FU when none available
system.cpu0.iq.fu_full::FloatCmp                    0      0.00%     84.80% # attempts to use FU when none available
system.cpu0.iq.fu_full::FloatCvt                    0      0.00%     84.80% # attempts to use FU when none available
system.cpu0.iq.fu_full::FloatMult                   0      0.00%     84.80% # attempts to use FU when none available
system.cpu0.iq.fu_full::FloatMultAcc                0      0.00%     84.80% # attempts to use FU when none available
system.cpu0.iq.fu_full::FloatDiv                    0      0.00%     84.80% # attempts to use FU when none available
system.cpu0.iq.fu_full::FloatMisc                   0      0.00%     84.80% # attempts to use FU when none available
system.cpu0.iq.fu_full::FloatSqrt                   0      0.00%     84.80% # attempts to use FU when none available
system.cpu0.iq.fu_full::SimdAdd                     0      0.00%     84.80% # attempts to use FU when none available
system.cpu0.iq.fu_full::SimdAddAcc                  0      0.00%     84.80% # attempts to use FU when none available
system.cpu0.iq.fu_full::SimdAlu                     0      0.00%     84.80% # attempts to use FU when none available
system.cpu0.iq.fu_full::SimdCmp                     0      0.00%     84.80% # attempts to use FU when none available
system.cpu0.iq.fu_full::SimdCvt                     0      0.00%     84.80% # attempts to use FU when none available
system.cpu0.iq.fu_full::SimdMisc                    0      0.00%     84.80% # attempts to use FU when none available
system.cpu0.iq.fu_full::SimdMult                    0      0.00%     84.80% # attempts to use FU when none available
system.cpu0.iq.fu_full::SimdMultAcc                 0      0.00%     84.80% # attempts to use FU when none available
system.cpu0.iq.fu_full::SimdShift                   0      0.00%     84.80% # attempts to use FU when none available
system.cpu0.iq.fu_full::SimdShiftAcc                0      0.00%     84.80% # attempts to use FU when none available
system.cpu0.iq.fu_full::SimdSqrt                    0      0.00%     84.80% # attempts to use FU when none available
system.cpu0.iq.fu_full::SimdFloatAdd                0      0.00%     84.80% # attempts to use FU when none available
system.cpu0.iq.fu_full::SimdFloatAlu                0      0.00%     84.80% # attempts to use FU when none available
system.cpu0.iq.fu_full::SimdFloatCmp                0      0.00%     84.80% # attempts to use FU when none available
system.cpu0.iq.fu_full::SimdFloatCvt                0      0.00%     84.80% # attempts to use FU when none available
system.cpu0.iq.fu_full::SimdFloatDiv                0      0.00%     84.80% # attempts to use FU when none available
system.cpu0.iq.fu_full::SimdFloatMisc               0      0.00%     84.80% # attempts to use FU when none available
system.cpu0.iq.fu_full::SimdFloatMult               0      0.00%     84.80% # attempts to use FU when none available
system.cpu0.iq.fu_full::SimdFloatMultAcc            0      0.00%     84.80% # attempts to use FU when none available
system.cpu0.iq.fu_full::SimdFloatSqrt               0      0.00%     84.80% # attempts to use FU when none available
system.cpu0.iq.fu_full::MemRead                 20180     12.38%     97.18% # attempts to use FU when none available
system.cpu0.iq.fu_full::MemWrite                 2925      1.79%     98.97% # attempts to use FU when none available
system.cpu0.iq.fu_full::FloatMemRead             1441      0.88%     99.85% # attempts to use FU when none available
system.cpu0.iq.fu_full::FloatMemWrite             238      0.15%    100.00% # attempts to use FU when none available
system.cpu0.iq.fu_full::IprAccess                   0      0.00%    100.00% # attempts to use FU when none available
system.cpu0.iq.fu_full::InstPrefetch                0      0.00%    100.00% # attempts to use FU when none available
system.cpu0.iq.FU_type_0::No_OpClass           145791      0.51%      0.51% # Type of FU issued
system.cpu0.iq.FU_type_0::IntAlu             23041930     81.28%     81.79% # Type of FU issued
system.cpu0.iq.FU_type_0::IntMult               10541      0.04%     81.83% # Type of FU issued
system.cpu0.iq.FU_type_0::IntDiv               114483      0.40%     82.23% # Type of FU issued
system.cpu0.iq.FU_type_0::FloatAdd             153609      0.54%     82.77% # Type of FU issued
system.cpu0.iq.FU_type_0::FloatCmp                  0      0.00%     82.77% # Type of FU issued
system.cpu0.iq.FU_type_0::FloatCvt                  0      0.00%     82.77% # Type of FU issued
system.cpu0.iq.FU_type_0::FloatMult                 0      0.00%     82.77% # Type of FU issued
system.cpu0.iq.FU_type_0::FloatMultAcc              0      0.00%     82.77% # Type of FU issued
system.cpu0.iq.FU_type_0::FloatDiv                  0      0.00%     82.77% # Type of FU issued
system.cpu0.iq.FU_type_0::FloatMisc                 0      0.00%     82.77% # Type of FU issued
system.cpu0.iq.FU_type_0::FloatSqrt                 0      0.00%     82.77% # Type of FU issued
system.cpu0.iq.FU_type_0::SimdAdd                   0      0.00%     82.77% # Type of FU issued
system.cpu0.iq.FU_type_0::SimdAddAcc                0      0.00%     82.77% # Type of FU issued
system.cpu0.iq.FU_type_0::SimdAlu                   0      0.00%     82.77% # Type of FU issued
system.cpu0.iq.FU_type_0::SimdCmp                   0      0.00%     82.77% # Type of FU issued
system.cpu0.iq.FU_type_0::SimdCvt                   0      0.00%     82.77% # Type of FU issued
system.cpu0.iq.FU_type_0::SimdMisc                  0      0.00%     82.77% # Type of FU issued
system.cpu0.iq.FU_type_0::SimdMult                  0      0.00%     82.77% # Type of FU issued
system.cpu0.iq.FU_type_0::SimdMultAcc               0      0.00%     82.77% # Type of FU issued
system.cpu0.iq.FU_type_0::SimdShift                 0      0.00%     82.77% # Type of FU issued
system.cpu0.iq.FU_type_0::SimdShiftAcc              0      0.00%     82.77% # Type of FU issued
system.cpu0.iq.FU_type_0::SimdSqrt                  0      0.00%     82.77% # Type of FU issued
system.cpu0.iq.FU_type_0::SimdFloatAdd              0      0.00%     82.77% # Type of FU issued
system.cpu0.iq.FU_type_0::SimdFloatAlu              0      0.00%     82.77% # Type of FU issued
system.cpu0.iq.FU_type_0::SimdFloatCmp              0      0.00%     82.77% # Type of FU issued
system.cpu0.iq.FU_type_0::SimdFloatCvt              0      0.00%     82.77% # Type of FU issued
system.cpu0.iq.FU_type_0::SimdFloatDiv              0      0.00%     82.77% # Type of FU issued
system.cpu0.iq.FU_type_0::SimdFloatMisc             0      0.00%     82.77% # Type of FU issued
system.cpu0.iq.FU_type_0::SimdFloatMult             0      0.00%     82.77% # Type of FU issued
system.cpu0.iq.FU_type_0::SimdFloatMultAcc            0      0.00%     82.77% # Type of FU issued
system.cpu0.iq.FU_type_0::SimdFloatSqrt             0      0.00%     82.77% # Type of FU issued
system.cpu0.iq.FU_type_0::MemRead             4281927     15.10%     97.88% # Type of FU issued
system.cpu0.iq.FU_type_0::MemWrite             569798      2.01%     99.89% # Type of FU issued
system.cpu0.iq.FU_type_0::FloatMemRead          30930      0.11%    100.00% # Type of FU issued
system.cpu0.iq.FU_type_0::FloatMemWrite           773      0.00%    100.00% # Type of FU issued
system.cpu0.iq.FU_type_0::IprAccess                 0      0.00%    100.00% # Type of FU issued
system.cpu0.iq.FU_type_0::InstPrefetch              0      0.00%    100.00% # Type of FU issued
system.cpu0.iq.FU_type_0::total              28349782                       # Type of FU issued
system.cpu0.iq.rate                          0.928445                       # Inst issue rate
system.cpu0.iq.fu_busy_cnt                     163065                       # FU busy when requested
system.cpu0.iq.fu_busy_rate                  0.005752                       # FU busy rate (busy events/executed inst)
system.cpu0.iq.int_inst_queue_reads          87074259                       # Number of integer instruction queue reads
system.cpu0.iq.int_inst_queue_writes         61188751                       # Number of integer instruction queue writes
system.cpu0.iq.int_inst_queue_wakeup_accesses     26757873                       # Number of integer instruction queue wakeup accesses
system.cpu0.iq.fp_inst_queue_reads             386877                       # Number of floating instruction queue reads
system.cpu0.iq.fp_inst_queue_writes            336738                       # Number of floating instruction queue writes
system.cpu0.iq.fp_inst_queue_wakeup_accesses       169811                       # Number of floating instruction queue wakeup accesses
system.cpu0.iq.vec_inst_queue_reads                 0                       # Number of vector instruction queue reads
system.cpu0.iq.vec_inst_queue_writes                0                       # Number of vector instruction queue writes
system.cpu0.iq.vec_inst_queue_wakeup_accesses            0                       # Number of vector instruction queue wakeup accesses
system.cpu0.iq.int_alu_accesses              28167910                       # Number of integer alu accesses
system.cpu0.iq.fp_alu_accesses                 199146                       # Number of floating point alu accesses
system.cpu0.iq.vec_alu_accesses                     0                       # Number of vector alu accesses
system.cpu0.iew.lsq.thread0.forwLoads           53994                       # Number of loads that had data forwarded from stores
system.cpu0.iew.lsq.thread0.invAddrLoads            0                       # Number of loads ignored due to an invalid address
system.cpu0.iew.lsq.thread0.squashedLoads      4197542                       # Number of loads squashed
system.cpu0.iew.lsq.thread0.ignoredResponses         1551                       # Number of memory responses ignored because the instruction is squashed
system.cpu0.iew.lsq.thread0.memOrderViolation           49                       # Number of memory ordering violations
system.cpu0.iew.lsq.thread0.squashedStores       432187                       # Number of stores squashed
system.cpu0.iew.lsq.thread0.invAddrSwpfs            0                       # Number of software prefetches ignored due to an invalid address
system.cpu0.iew.lsq.thread0.blockedLoads            0                       # Number of blocked loads due to partial load-store forwarding
system.cpu0.iew.lsq.thread0.rescheduledLoads          438                       # Number of loads that were rescheduled
system.cpu0.iew.lsq.thread0.cacheBlocked         5642                       # Number of times an access to memory failed due to the cache being blocked
system.cpu0.iew.iewIdleCycles                       0                       # Number of cycles IEW is idle
system.cpu0.iew.iewSquashCycles                437523                       # Number of cycles IEW is squashing
system.cpu0.iew.iewBlockCycles               13146427                       # Number of cycles IEW is blocking
system.cpu0.iew.iewUnblockCycles               605408                       # Number of cycles IEW is unblocking
system.cpu0.iew.iewDispatchedInsts           38274698                       # Number of instructions dispatched to IQ
system.cpu0.iew.iewDispSquashedInsts            25288                       # Number of squashed instructions skipped by dispatch
system.cpu0.iew.iewDispLoadInsts              6700382                       # Number of dispatched load instructions
system.cpu0.iew.iewDispStoreInsts              773273                       # Number of dispatched store instructions
system.cpu0.iew.iewDispNonSpecInsts             15238                       # Number of dispatched non-speculative instructions
system.cpu0.iew.iewIQFullEvents                 40789                       # Number of times the IQ has become full, causing a stall
system.cpu0.iew.iewLSQFullEvents                15197                       # Number of times the LSQ has become full, causing a stall
system.cpu0.iew.memOrderViolationEvents            49                       # Number of memory order violations
system.cpu0.iew.predictedTakenIncorrect        205554                       # Number of branches that were predicted taken incorrectly
system.cpu0.iew.predictedNotTakenIncorrect       302472                       # Number of branches that were predicted not taken incorrectly
system.cpu0.iew.branchMispredicts              508026                       # Number of branch mispredicts detected at execute
system.cpu0.iew.iewExecutedInsts             27550938                       # Number of executed instructions
system.cpu0.iew.iewExecLoadInsts              4024539                       # Number of load instructions executed
system.cpu0.iew.iewExecSquashedInsts           798844                       # Number of squashed instructions skipped in execute
system.cpu0.iew.exec_swp                            0                       # number of swp insts executed
system.cpu0.iew.exec_nop                            0                       # number of nop insts executed
system.cpu0.iew.exec_refs                     4554342                       # number of memory reference insts executed
system.cpu0.iew.exec_branches                 3192282                       # Number of branches executed
system.cpu0.iew.exec_stores                    529803                       # Number of stores executed
system.cpu0.iew.exec_rate                    0.902283                       # Inst execution rate
system.cpu0.iew.wb_sent                      27080974                       # cumulative count of insts sent to commit
system.cpu0.iew.wb_count                     26927684                       # cumulative count of insts written-back
system.cpu0.iew.wb_producers                 20128493                       # num instructions producing a value
system.cpu0.iew.wb_consumers                 32739603                       # num instructions consuming a value
system.cpu0.iew.wb_rate                      0.881872                       # insts written-back per cycle
system.cpu0.iew.wb_fanout                    0.614806                       # average fanout of values written-back
system.cpu0.commit.commitSquashedInsts       23252268                       # The number of squashed insts skipped by commit
system.cpu0.commit.commitNonSpecStalls              1                       # The number of times commit has been forced to stall to communicate backwards
system.cpu0.commit.branchMispredicts           437500                       # The number of times a branch was mispredicted
system.cpu0.commit.committed_per_cycle::samples     27160982                       # Number of insts commited each cycle
system.cpu0.commit.committed_per_cycle::mean     0.553144                       # Number of insts commited each cycle
system.cpu0.commit.committed_per_cycle::stdev     1.384833                       # Number of insts commited each cycle
system.cpu0.commit.committed_per_cycle::underflows            0      0.00%      0.00% # Number of insts commited each cycle
system.cpu0.commit.committed_per_cycle::0     21287938     78.38%     78.38% # Number of insts commited each cycle
system.cpu0.commit.committed_per_cycle::1      2499150      9.20%     87.58% # Number of insts commited each cycle
system.cpu0.commit.committed_per_cycle::2       694987      2.56%     90.14% # Number of insts commited each cycle
system.cpu0.commit.committed_per_cycle::3      1636103      6.02%     96.16% # Number of insts commited each cycle
system.cpu0.commit.committed_per_cycle::4       342432      1.26%     97.42% # Number of insts commited each cycle
system.cpu0.commit.committed_per_cycle::5       192662      0.71%     98.13% # Number of insts commited each cycle
system.cpu0.commit.committed_per_cycle::6        64503      0.24%     98.37% # Number of insts commited each cycle
system.cpu0.commit.committed_per_cycle::7        39209      0.14%     98.51% # Number of insts commited each cycle
system.cpu0.commit.committed_per_cycle::8       403998      1.49%    100.00% # Number of insts commited each cycle
system.cpu0.commit.committed_per_cycle::overflows            0      0.00%    100.00% # Number of insts commited each cycle
system.cpu0.commit.committed_per_cycle::min_value            0                       # Number of insts commited each cycle
system.cpu0.commit.committed_per_cycle::max_value            8                       # Number of insts commited each cycle
system.cpu0.commit.committed_per_cycle::total     27160982                       # Number of insts commited each cycle
system.cpu0.commit.committedInsts             7525968                       # Number of instructions committed
system.cpu0.commit.committedOps              15023936                       # Number of ops (including micro ops) committed
system.cpu0.commit.swp_count                        0                       # Number of s/w prefetches committed
system.cpu0.commit.refs                       2843925                       # Number of memory references committed
system.cpu0.commit.loads                      2502839                       # Number of loads committed
system.cpu0.commit.membars                          0                       # Number of memory barriers committed
system.cpu0.commit.branches                   2419473                       # Number of branches committed
system.cpu0.commit.vec_insts                        0                       # Number of committed Vector instructions.
system.cpu0.commit.fp_insts                    136824                       # Number of committed floating point instructions.
system.cpu0.commit.int_insts                 14885767                       # Number of committed integer instructions.
system.cpu0.commit.function_calls               60154                       # Number of function calls committed.
system.cpu0.commit.op_class_0::No_OpClass        41232      0.27%      0.27% # Class of committed instruction
system.cpu0.commit.op_class_0::IntAlu        11919527     79.34%     79.61% # Class of committed instruction
system.cpu0.commit.op_class_0::IntMult           2406      0.02%     79.63% # Class of committed instruction
system.cpu0.commit.op_class_0::IntDiv           99966      0.67%     80.29% # Class of committed instruction
system.cpu0.commit.op_class_0::FloatAdd        116880      0.78%     81.07% # Class of committed instruction
system.cpu0.commit.op_class_0::FloatCmp             0      0.00%     81.07% # Class of committed instruction
system.cpu0.commit.op_class_0::FloatCvt             0      0.00%     81.07% # Class of committed instruction
system.cpu0.commit.op_class_0::FloatMult            0      0.00%     81.07% # Class of committed instruction
system.cpu0.commit.op_class_0::FloatMultAcc            0      0.00%     81.07% # Class of committed instruction
system.cpu0.commit.op_class_0::FloatDiv             0      0.00%     81.07% # Class of committed instruction
system.cpu0.commit.op_class_0::FloatMisc            0      0.00%     81.07% # Class of committed instruction
system.cpu0.commit.op_class_0::FloatSqrt            0      0.00%     81.07% # Class of committed instruction
system.cpu0.commit.op_class_0::SimdAdd              0      0.00%     81.07% # Class of committed instruction
system.cpu0.commit.op_class_0::SimdAddAcc            0      0.00%     81.07% # Class of committed instruction
system.cpu0.commit.op_class_0::SimdAlu              0      0.00%     81.07% # Class of committed instruction
system.cpu0.commit.op_class_0::SimdCmp              0      0.00%     81.07% # Class of committed instruction
system.cpu0.commit.op_class_0::SimdCvt              0      0.00%     81.07% # Class of committed instruction
system.cpu0.commit.op_class_0::SimdMisc             0      0.00%     81.07% # Class of committed instruction
system.cpu0.commit.op_class_0::SimdMult             0      0.00%     81.07% # Class of committed instruction
system.cpu0.commit.op_class_0::SimdMultAcc            0      0.00%     81.07% # Class of committed instruction
system.cpu0.commit.op_class_0::SimdShift            0      0.00%     81.07% # Class of committed instruction
system.cpu0.commit.op_class_0::SimdShiftAcc            0      0.00%     81.07% # Class of committed instruction
system.cpu0.commit.op_class_0::SimdSqrt             0      0.00%     81.07% # Class of committed instruction
system.cpu0.commit.op_class_0::SimdFloatAdd            0      0.00%     81.07% # Class of committed instruction
system.cpu0.commit.op_class_0::SimdFloatAlu            0      0.00%     81.07% # Class of committed instruction
system.cpu0.commit.op_class_0::SimdFloatCmp            0      0.00%     81.07% # Class of committed instruction
system.cpu0.commit.op_class_0::SimdFloatCvt            0      0.00%     81.07% # Class of committed instruction
system.cpu0.commit.op_class_0::SimdFloatDiv            0      0.00%     81.07% # Class of committed instruction
system.cpu0.commit.op_class_0::SimdFloatMisc            0      0.00%     81.07% # Class of committed instruction
system.cpu0.commit.op_class_0::SimdFloatMult            0      0.00%     81.07% # Class of committed instruction
system.cpu0.commit.op_class_0::SimdFloatMultAcc            0      0.00%     81.07% # Class of committed instruction
system.cpu0.commit.op_class_0::SimdFloatSqrt            0      0.00%     81.07% # Class of committed instruction
system.cpu0.commit.op_class_0::MemRead        2482895     16.53%     97.60% # Class of committed instruction
system.cpu0.commit.op_class_0::MemWrite        341086      2.27%     99.87% # Class of committed instruction
system.cpu0.commit.op_class_0::FloatMemRead        19944      0.13%    100.00% # Class of committed instruction
system.cpu0.commit.op_class_0::FloatMemWrite            0      0.00%    100.00% # Class of committed instruction
system.cpu0.commit.op_class_0::IprAccess            0      0.00%    100.00% # Class of committed instruction
system.cpu0.commit.op_class_0::InstPrefetch            0      0.00%    100.00% # Class of committed instruction
system.cpu0.commit.op_class_0::total         15023936                       # Class of committed instruction
system.cpu0.commit.bw_lim_events               403998                       # number cycles where commit BW limit reached
system.cpu0.rob.rob_reads                    65033188                       # The number of ROB reads
system.cpu0.rob.rob_writes                   79944026                       # The number of ROB writes
system.cpu0.timesIdled                            458                       # Number of times that the entire CPU went into an idle state and unscheduled itself
system.cpu0.idleCycles                           1472                       # Total number of cycles that the CPU has spent unscheduled due to idling
system.cpu0.committedInsts                    7525968                       # Number of Instructions Simulated
system.cpu0.committedOps                     15023936                       # Number of Ops (including micro ops) Simulated
system.cpu0.cpi                              4.057244                       # CPI: Cycles Per Instruction
system.cpu0.cpi_total                        4.057244                       # CPI: Total CPI of All Threads
system.cpu0.ipc                              0.246473                       # IPC: Instructions Per Cycle
system.cpu0.ipc_total                        0.246473                       # IPC: Total IPC of All Threads
system.cpu0.int_regfile_reads                30246510                       # number of integer regfile reads
system.cpu0.int_regfile_writes               23303549                       # number of integer regfile writes
system.cpu0.fp_regfile_reads                   298901                       # number of floating regfile reads
system.cpu0.fp_regfile_writes                  149212                       # number of floating regfile writes
system.cpu0.cc_regfile_reads                 16588240                       # number of cc regfile reads
system.cpu0.cc_regfile_writes                 7726005                       # number of cc regfile writes
system.cpu0.misc_regfile_reads               13608554                       # number of misc regfile reads
system.cpu0.dcache.tags.pwrStateResidencyTicks::UNDEFINED  15267344125                       # Cumulative time (in ticks) in various power states
system.cpu0.dcache.tags.replacements          1141504                       # number of replacements
system.cpu0.dcache.tags.tagsinuse                 512                       # Cycle average of tags in use
system.cpu0.dcache.tags.total_refs            2327490                       # Total number of references to valid blocks.
system.cpu0.dcache.tags.sampled_refs          1141504                       # Sample count of references to valid blocks.
system.cpu0.dcache.tags.avg_refs             2.038968                       # Average number of references to valid blocks.
system.cpu0.dcache.tags.warmup_cycle                0                       # Cycle when the warmup percentage was hit.
system.cpu0.dcache.tags.occ_blocks::cpu0.data          512                       # Average occupied blocks per requestor
system.cpu0.dcache.tags.occ_percent::cpu0.data            1                       # Average percentage of cache occupancy
system.cpu0.dcache.tags.occ_percent::total            1                       # Average percentage of cache occupancy
system.cpu0.dcache.tags.occ_task_id_blocks::1024          512                       # Occupied blocks per task id
system.cpu0.dcache.tags.age_task_id_blocks_1024::0          469                       # Occupied blocks per task id
system.cpu0.dcache.tags.age_task_id_blocks_1024::1           43                       # Occupied blocks per task id
system.cpu0.dcache.tags.occ_task_id_percent::1024            1                       # Percentage of cache occupancy per task id
system.cpu0.dcache.tags.tag_accesses         18246576                       # Number of tag accesses
system.cpu0.dcache.tags.data_accesses        18246576                       # Number of data accesses
system.cpu0.dcache.pwrStateResidencyTicks::UNDEFINED  15267344125                       # Cumulative time (in ticks) in various power states
system.cpu0.dcache.ReadReq_hits::cpu0.data      1995389                       # number of ReadReq hits
system.cpu0.dcache.ReadReq_hits::total        1995389                       # number of ReadReq hits
system.cpu0.dcache.WriteReq_hits::cpu0.data       331601                       # number of WriteReq hits
system.cpu0.dcache.WriteReq_hits::total        331601                       # number of WriteReq hits
system.cpu0.dcache.demand_hits::cpu0.data      2326990                       # number of demand (read+write) hits
system.cpu0.dcache.demand_hits::total         2326990                       # number of demand (read+write) hits
system.cpu0.dcache.overall_hits::cpu0.data      2326990                       # number of overall hits
system.cpu0.dcache.overall_hits::total        2326990                       # number of overall hits
system.cpu0.dcache.ReadReq_misses::cpu0.data      1939793                       # number of ReadReq misses
system.cpu0.dcache.ReadReq_misses::total      1939793                       # number of ReadReq misses
system.cpu0.dcache.WriteReq_misses::cpu0.data         9485                       # number of WriteReq misses
system.cpu0.dcache.WriteReq_misses::total         9485                       # number of WriteReq misses
system.cpu0.dcache.demand_misses::cpu0.data      1949278                       # number of demand (read+write) misses
system.cpu0.dcache.demand_misses::total       1949278                       # number of demand (read+write) misses
system.cpu0.dcache.overall_misses::cpu0.data      1949278                       # number of overall misses
system.cpu0.dcache.overall_misses::total      1949278                       # number of overall misses
system.cpu0.dcache.ReadReq_miss_latency::cpu0.data  26603866500                       # number of ReadReq miss cycles
system.cpu0.dcache.ReadReq_miss_latency::total  26603866500                       # number of ReadReq miss cycles
system.cpu0.dcache.WriteReq_miss_latency::cpu0.data    437204998                       # number of WriteReq miss cycles
system.cpu0.dcache.WriteReq_miss_latency::total    437204998                       # number of WriteReq miss cycles
system.cpu0.dcache.demand_miss_latency::cpu0.data  27041071498                       # number of demand (read+write) miss cycles
system.cpu0.dcache.demand_miss_latency::total  27041071498                       # number of demand (read+write) miss cycles
system.cpu0.dcache.overall_miss_latency::cpu0.data  27041071498                       # number of overall miss cycles
system.cpu0.dcache.overall_miss_latency::total  27041071498                       # number of overall miss cycles
system.cpu0.dcache.ReadReq_accesses::cpu0.data      3935182                       # number of ReadReq accesses(hits+misses)
system.cpu0.dcache.ReadReq_accesses::total      3935182                       # number of ReadReq accesses(hits+misses)
system.cpu0.dcache.WriteReq_accesses::cpu0.data       341086                       # number of WriteReq accesses(hits+misses)
system.cpu0.dcache.WriteReq_accesses::total       341086                       # number of WriteReq accesses(hits+misses)
system.cpu0.dcache.demand_accesses::cpu0.data      4276268                       # number of demand (read+write) accesses
system.cpu0.dcache.demand_accesses::total      4276268                       # number of demand (read+write) accesses
system.cpu0.dcache.overall_accesses::cpu0.data      4276268                       # number of overall (read+write) accesses
system.cpu0.dcache.overall_accesses::total      4276268                       # number of overall (read+write) accesses
system.cpu0.dcache.ReadReq_miss_rate::cpu0.data     0.492936                       # miss rate for ReadReq accesses
[...]
system.l2.demand_miss_rate::cpu0.data        0.005645                       # miss rate for demand accesses
system.l2.demand_miss_rate::total            0.005650                       # miss rate for demand accesses
system.l2.overall_miss_rate::cpu0.inst       0.059406                       # miss rate for overall accesses
system.l2.overall_miss_rate::cpu0.data       0.005645                       # miss rate for overall accesses
system.l2.overall_miss_rate::total           0.005650                       # miss rate for overall accesses
system.l2.ReadExReq_avg_miss_latency::cpu0.data 105221.033323                       # average ReadExReq miss latency
system.l2.ReadExReq_avg_miss_latency::total 105221.033323                       # average ReadExReq miss latency
system.l2.ReadCleanReq_avg_miss_latency::cpu0.inst 94416.666667                       # average ReadCleanReq miss latency
system.l2.ReadCleanReq_avg_miss_latency::total 94416.666667                       # average ReadCleanReq miss latency
system.l2.ReadSharedReq_avg_miss_latency::cpu0.data 109961.235424                       # average ReadSharedReq miss latency
system.l2.ReadSharedReq_avg_miss_latency::total 109961.235424                       # average ReadSharedReq miss latency
system.l2.demand_avg_miss_latency::cpu0.inst 94416.666667                       # average overall miss latency
system.l2.demand_avg_miss_latency::cpu0.data 107555.090006                       # average overall miss latency
system.l2.demand_avg_miss_latency::total 107542.868217                       # average overall miss latency
system.l2.overall_avg_miss_latency::cpu0.inst 94416.666667                       # average overall miss latency
system.l2.overall_avg_miss_latency::cpu0.data 107555.090006                       # average overall miss latency
system.l2.overall_avg_miss_latency::total 107542.868217                       # average overall miss latency
system.l2.blocked_cycles::no_mshrs                  0                       # number of cycles access was blocked
system.l2.blocked_cycles::no_targets                0                       # number of cycles access was blocked
system.l2.blocked::no_mshrs                         0                       # number of cycles access was blocked
system.l2.blocked::no_targets                       0                       # number of cycles access was blocked
system.l2.avg_blocked_cycles::no_mshrs            nan                       # average number of cycles each access was blocked
system.l2.avg_blocked_cycles::no_targets          nan                       # average number of cycles each access was blocked
system.l2.writebacks::writebacks                 2510                       # number of writebacks
system.l2.writebacks::total                      2510                       # number of writebacks
system.l2.ReadExReq_mshr_misses::cpu0.data         3271                       # number of ReadExReq MSHR misses
system.l2.ReadExReq_mshr_misses::total           3271                       # number of ReadExReq MSHR misses
system.l2.ReadCleanReq_mshr_misses::cpu0.inst            6                       # number of ReadCleanReq MSHR misses
system.l2.ReadCleanReq_mshr_misses::total            6                       # number of ReadCleanReq MSHR misses
system.l2.ReadSharedReq_mshr_misses::cpu0.data         3173                       # number of ReadSharedReq MSHR misses
system.l2.ReadSharedReq_mshr_misses::total         3173                       # number of ReadSharedReq MSHR misses
system.l2.demand_mshr_misses::cpu0.inst             6                       # number of demand (read+write) MSHR misses
system.l2.demand_mshr_misses::cpu0.data          6444                       # number of demand (read+write) MSHR misses
system.l2.demand_mshr_misses::total              6450                       # number of demand (read+write) MSHR misses
system.l2.overall_mshr_misses::cpu0.inst            6                       # number of overall MSHR misses
system.l2.overall_mshr_misses::cpu0.data         6444                       # number of overall MSHR misses
system.l2.overall_mshr_misses::total             6450                       # number of overall MSHR misses
system.l2.ReadExReq_mshr_miss_latency::cpu0.data    311468000                       # number of ReadExReq MSHR miss cycles
system.l2.ReadExReq_mshr_miss_latency::total    311468000                       # number of ReadExReq MSHR miss cycles
system.l2.ReadCleanReq_mshr_miss_latency::cpu0.inst       506500                       # number of ReadCleanReq MSHR miss cycles
system.l2.ReadCleanReq_mshr_miss_latency::total       506500                       # number of ReadCleanReq MSHR miss cycles
system.l2.ReadSharedReq_mshr_miss_latency::cpu0.data    317177000                       # number of ReadSharedReq MSHR miss cycles
system.l2.ReadSharedReq_mshr_miss_latency::total    317177000                       # number of ReadSharedReq MSHR miss cycles
system.l2.demand_mshr_miss_latency::cpu0.inst       506500                       # number of demand (read+write) MSHR miss cycles
system.l2.demand_mshr_miss_latency::cpu0.data    628645000                       # number of demand (read+write) MSHR miss cycles
system.l2.demand_mshr_miss_latency::total    629151500                       # number of demand (read+write) MSHR miss cycles
system.l2.overall_mshr_miss_latency::cpu0.inst       506500                       # number of overall MSHR miss cycles
system.l2.overall_mshr_miss_latency::cpu0.data    628645000                       # number of overall MSHR miss cycles
system.l2.overall_mshr_miss_latency::total    629151500                       # number of overall MSHR miss cycles
system.l2.ReadExReq_mshr_miss_rate::cpu0.data     0.346651                       # mshr miss rate for ReadExReq accesses
system.l2.ReadExReq_mshr_miss_rate::total     0.346651                       # mshr miss rate for ReadExReq accesses
system.l2.ReadCleanReq_mshr_miss_rate::cpu0.inst     0.059406                       # mshr miss rate for ReadCleanReq accesses
system.l2.ReadCleanReq_mshr_miss_rate::total     0.059406                       # mshr miss rate for ReadCleanReq accesses
system.l2.ReadSharedReq_mshr_miss_rate::cpu0.data     0.002803                       # mshr miss rate for ReadSharedReq accesses
system.l2.ReadSharedReq_mshr_miss_rate::total     0.002803                       # mshr miss rate for ReadSharedReq accesses
system.l2.demand_mshr_miss_rate::cpu0.inst     0.059406                       # mshr miss rate for demand accesses
system.l2.demand_mshr_miss_rate::cpu0.data     0.005645                       # mshr miss rate for demand accesses
system.l2.demand_mshr_miss_rate::total       0.005650                       # mshr miss rate for demand accesses
system.l2.overall_mshr_miss_rate::cpu0.inst     0.059406                       # mshr miss rate for overall accesses
system.l2.overall_mshr_miss_rate::cpu0.data     0.005645                       # mshr miss rate for overall accesses
system.l2.overall_mshr_miss_rate::total      0.005650                       # mshr miss rate for overall accesses
system.l2.ReadExReq_avg_mshr_miss_latency::cpu0.data 95221.033323                       # average ReadExReq mshr miss latency
system.l2.ReadExReq_avg_mshr_miss_latency::total 95221.033323                       # average ReadExReq mshr miss latency
system.l2.ReadCleanReq_avg_mshr_miss_latency::cpu0.inst 84416.666667                       # average ReadCleanReq mshr miss latency
system.l2.ReadCleanReq_avg_mshr_miss_latency::total 84416.666667                       # average ReadCleanReq mshr miss latency
system.l2.ReadSharedReq_avg_mshr_miss_latency::cpu0.data 99961.235424                       # average ReadSharedReq mshr miss latency
system.l2.ReadSharedReq_avg_mshr_miss_latency::total 99961.235424                       # average ReadSharedReq mshr miss latency
system.l2.demand_avg_mshr_miss_latency::cpu0.inst 84416.666667                       # average overall mshr miss latency
system.l2.demand_avg_mshr_miss_latency::cpu0.data 97555.090006                       # average overall mshr miss latency
system.l2.demand_avg_mshr_miss_latency::total 97542.868217                       # average overall mshr miss latency
system.l2.overall_avg_mshr_miss_latency::cpu0.inst 84416.666667                       # average overall mshr miss latency
system.l2.overall_avg_mshr_miss_latency::cpu0.data 97555.090006                       # average overall mshr miss latency
system.l2.overall_avg_mshr_miss_latency::total 97542.868217                       # average overall mshr miss latency
system.membus.snoop_filter.tot_requests         12903                       # Total number of requests made to the snoop filter.
system.membus.snoop_filter.hit_single_requests         6453                       # Number of requests hitting in the snoop filter with a single holder of the requested data.
system.membus.snoop_filter.hit_multi_requests            0                       # Number of requests hitting in the snoop filter with multiple (>1) holders of the requested data.
system.membus.snoop_filter.tot_snoops               0                       # Total number of snoops made to the snoop filter.
system.membus.snoop_filter.hit_single_snoops            0                       # Number of snoops hitting in the snoop filter with a single holder of the requested data.
system.membus.snoop_filter.hit_multi_snoops            0                       # Number of snoops hitting in the snoop filter with multiple (>1) holders of the requested data.
system.membus.pwrStateResidencyTicks::UNDEFINED  15267344125                       # Cumulative time (in ticks) in various power states
system.membus.trans_dist::ReadResp               3179                       # Transaction distribution
system.membus.trans_dist::WritebackDirty         2510                       # Transaction distribution
system.membus.trans_dist::CleanEvict             3943                       # Transaction distribution
system.membus.trans_dist::ReadExReq              3271                       # Transaction distribution
system.membus.trans_dist::ReadExResp             3271                       # Transaction distribution
system.membus.trans_dist::ReadSharedReq          3179                       # Transaction distribution
system.membus.pkt_count_system.l2.mem_side::system.mem_ctrls.port        19353                       # Packet count per connected master and slave (bytes)
system.membus.pkt_count_system.l2.mem_side::total        19353                       # Packet count per connected master and slave (bytes)
system.membus.pkt_count::total                  19353                       # Packet count per connected master and slave (bytes)
system.membus.pkt_size_system.l2.mem_side::system.mem_ctrls.port       573440                       # Cumulative packet size per connected master and slave (bytes)
system.membus.pkt_size_system.l2.mem_side::total       573440                       # Cumulative packet size per connected master and slave (bytes)
system.membus.pkt_size::total                  573440                       # Cumulative packet size per connected master and slave (bytes)
system.membus.snoops                                0                       # Total snoops (count)
system.membus.snoopTraffic                          0                       # Total snoop traffic (bytes)
system.membus.snoop_fanout::samples              6450                       # Request fanout histogram
system.membus.snoop_fanout::mean                    0                       # Request fanout histogram
system.membus.snoop_fanout::stdev                   0                       # Request fanout histogram
system.membus.snoop_fanout::underflows              0      0.00%      0.00% # Request fanout histogram
system.membus.snoop_fanout::0                    6450    100.00%    100.00% # Request fanout histogram
system.membus.snoop_fanout::1                       0      0.00%    100.00% # Request fanout histogram
system.membus.snoop_fanout::overflows               0      0.00%    100.00% # Request fanout histogram
system.membus.snoop_fanout::min_value               0                       # Request fanout histogram
system.membus.snoop_fanout::max_value               0                       # Request fanout histogram
system.membus.snoop_fanout::total                6450                       # Request fanout histogram
system.membus.reqLayer12.occupancy           24569000                       # Layer occupancy (ticks)
system.membus.reqLayer12.utilization              0.2                       # Layer utilization (%)
system.membus.respLayer1.occupancy           34992750                       # Layer occupancy (ticks)
system.membus.respLayer1.utilization              0.2                       # Layer utilization (%)
system.tol2bus.snoop_filter.tot_requests      2283210                       # Total number of requests made to the snoop filter.
system.tol2bus.snoop_filter.hit_single_requests      1141604                       # Number of requests hitting in the snoop filter with a single holder of the requested data.
system.tol2bus.snoop_filter.hit_multi_requests         2938                       # Number of requests hitting in the snoop filter with multiple (>1) holders of the requested data.
system.tol2bus.snoop_filter.tot_snoops              0                       # Total number of snoops made to the snoop filter.
system.tol2bus.snoop_filter.hit_single_snoops            0                       # Number of snoops hitting in the snoop filter with a single holder of the requested data.
system.tol2bus.snoop_filter.hit_multi_snoops            0                       # Number of snoops hitting in the snoop filter with multiple (>1) holders of the requested data.
system.tol2bus.pwrStateResidencyTicks::UNDEFINED  15267344125                       # Cumulative time (in ticks) in various power states
system.tol2bus.trans_dist::ReadResp           1132169                       # Transaction distribution
system.tol2bus.trans_dist::WritebackDirty      1122456                       # Transaction distribution
system.tol2bus.trans_dist::WritebackClean          101                       # Transaction distribution
system.tol2bus.trans_dist::CleanEvict           25501                       # Transaction distribution
system.tol2bus.trans_dist::ReadExReq             9436                       # Transaction distribution
system.tol2bus.trans_dist::ReadExResp            9436                       # Transaction distribution
system.tol2bus.trans_dist::ReadCleanReq           101                       # Transaction distribution
system.tol2bus.trans_dist::ReadSharedReq      1132068                       # Transaction distribution
system.tol2bus.pkt_count_system.cpu0.icache.mem_side::system.l2.cpu_side          303                       # Packet count per connected master and slave (bytes)
system.tol2bus.pkt_count_system.cpu0.dcache.mem_side::system.l2.cpu_side      3424512                       # Packet count per connected master and slave (bytes)
system.tol2bus.pkt_count::total               3424815                       # Packet count per connected master and slave (bytes)
system.tol2bus.pkt_size_system.cpu0.icache.mem_side::system.l2.cpu_side        12928                       # Cumulative packet size per connected master and slave (bytes)
system.tol2bus.pkt_size_system.cpu0.dcache.mem_side::system.l2.cpu_side    144732800                       # Cumulative packet size per connected master and slave (bytes)
system.tol2bus.pkt_size::total              144745728                       # Cumulative packet size per connected master and slave (bytes)
system.tol2bus.snoops                            6453                       # Total snoops (count)
system.tol2bus.snoopTraffic                    160640                       # Total snoop traffic (bytes)
system.tol2bus.snoop_fanout::samples          1148058                       # Request fanout histogram
system.tol2bus.snoop_fanout::mean            0.002558                       # Request fanout histogram
system.tol2bus.snoop_fanout::stdev           0.050514                       # Request fanout histogram
system.tol2bus.snoop_fanout::underflows             0      0.00%      0.00% # Request fanout histogram
system.tol2bus.snoop_fanout::0                1145121     99.74%     99.74% # Request fanout histogram
system.tol2bus.snoop_fanout::1                   2937      0.26%    100.00% # Request fanout histogram
system.tol2bus.snoop_fanout::2                      0      0.00%    100.00% # Request fanout histogram
system.tol2bus.snoop_fanout::3                      0      0.00%    100.00% # Request fanout histogram
system.tol2bus.snoop_fanout::4                      0      0.00%    100.00% # Request fanout histogram
system.tol2bus.snoop_fanout::5                      0      0.00%    100.00% # Request fanout histogram
system.tol2bus.snoop_fanout::6                      0      0.00%    100.00% # Request fanout histogram
system.tol2bus.snoop_fanout::7                      0      0.00%    100.00% # Request fanout histogram
system.tol2bus.snoop_fanout::8                      0      0.00%    100.00% # Request fanout histogram
system.tol2bus.snoop_fanout::9                      0      0.00%    100.00% # Request fanout histogram
system.tol2bus.snoop_fanout::10                     0      0.00%    100.00% # Request fanout histogram
system.tol2bus.snoop_fanout::11                     0      0.00%    100.00% # Request fanout histogram
system.tol2bus.snoop_fanout::12                     0      0.00%    100.00% # Request fanout histogram
system.tol2bus.snoop_fanout::13                     0      0.00%    100.00% # Request fanout histogram
system.tol2bus.snoop_fanout::14                     0      0.00%    100.00% # Request fanout histogram
system.tol2bus.snoop_fanout::15                     0      0.00%    100.00% # Request fanout histogram
system.tol2bus.snoop_fanout::16                     0      0.00%    100.00% # Request fanout histogram
system.tol2bus.snoop_fanout::17                     0      0.00%    100.00% # Request fanout histogram
system.tol2bus.snoop_fanout::18                     0      0.00%    100.00% # Request fanout histogram
system.tol2bus.snoop_fanout::19                     0      0.00%    100.00% # Request fanout histogram
system.tol2bus.snoop_fanout::20                     0      0.00%    100.00% # Request fanout histogram
system.tol2bus.snoop_fanout::21                     0      0.00%    100.00% # Request fanout histogram
system.tol2bus.snoop_fanout::22                     0      0.00%    100.00% # Request fanout histogram
system.tol2bus.snoop_fanout::23                     0      0.00%    100.00% # Request fanout histogram
system.tol2bus.snoop_fanout::24                     0      0.00%    100.00% # Request fanout histogram
system.tol2bus.snoop_fanout::overflows              0      0.00%    100.00% # Request fanout histogram
system.tol2bus.snoop_fanout::min_value              0                       # Request fanout histogram
system.tol2bus.snoop_fanout::max_value              1                       # Request fanout histogram
system.tol2bus.snoop_fanout::total            1148058                       # Request fanout histogram
system.tol2bus.reqLayer0.occupancy         2261652000                       # Layer occupancy (ticks)
system.tol2bus.reqLayer0.utilization             14.8                       # Layer utilization (%)
system.tol2bus.respLayer0.occupancy            151999                       # Layer occupancy (ticks)
system.tol2bus.respLayer0.utilization             0.0                       # Layer utilization (%)
system.tol2bus.respLayer1.occupancy        1712256000                       # Layer occupancy (ticks)
system.tol2bus.respLayer1.utilization            11.2                       # Layer utilization (%)

---------- End Simulation Statistics   ----------
